 xtb: 6.7.1 (edcfbbe)
          09242615403D

 38 41  0     0  0            999 V2000
    1.7781   -0.3650    3.3565 O   0  0  0  0  0  0  0  0  0  0  0  0
    1.0872   -0.3777    2.3791 C   0  0  0  0  0  0  0  0  0  0  0  0
   -0.4385    0.5377    2.1985 S   0  0  0  0  0  0  0  0  0  0  0  0
   -0.6673   -0.1039    0.6227 N   0  0  0  0  0  0  0  0  0  0  0  0
   -1.6645    0.3757   -0.2608 C   0  0  0  0  0  0  0  0  0  0  0  0
   -1.2771    0.9024   -1.4672 C   0  0  0  0  0  0  0  0  0  0  0  0
   -2.2351    1.3736   -2.3732 C   0  0  0  0  0  0  0  0  0  0  0  0
   -3.5621    1.3401   -2.0508 C   0  0  0  0  0  0  0  0  0  0  0  0
   -3.9917    0.8124   -0.8154 C   0  0  0  0  0  0  0  0  0  0  0  0
   -5.3589    0.7668   -0.4710 C   0  0  0  0  0  0  0  0  0  0  0  0
   -5.7659    0.2318    0.7183 C   0  0  0  0  0  0  0  0  0  0  0  0
   -4.8216   -0.2931    1.6125 C   0  0  0  0  0  0  0  0  0  0  0  0
   -3.4878   -0.2608    1.3131 C   0  0  0  0  0  0  0  0  0  0  0  0
   -3.0337    0.3025    0.1026 C   0  0  0  0  0  0  0  0  0  0  0  0
    0.3379   -0.9309    0.2109 C   0  0  0  0  0  0  0  0  0  0  0  0
    0.4014   -1.4926   -0.8535 O   0  0  0  0  0  0  0  0  0  0  0  0
    1.2732   -1.0754    1.2305 N   0  0  0  0  0  0  0  0  0  0  0  0
    2.4904   -1.8492    1.0030 C   0  0  0  0  0  0  0  0  0  0  0  0
    3.5585   -0.9562    0.4276 C   0  0  0  0  0  0  0  0  0  0  0  0
    4.4321   -0.2784    1.2678 C   0  0  0  0  0  0  0  0  0  0  0  0
    5.3751    0.5854    0.7386 C   0  0  0  0  0  0  0  0  0  0  0  0
    5.4473    0.7807   -0.6304 C   0  0  0  0  0  0  0  0  0  0  0  0
    4.5729    0.1120   -1.4709 C   0  0  0  0  0  0  0  0  0  0  0  0
    3.6294   -0.7528   -0.9448 C   0  0  0  0  0  0  0  0  0  0  0  0
   -0.2298    0.9413   -1.7233 H   0  0  0  0  0  0  0  0  0  0  0  0
   -1.9081    1.7730   -3.3209 H   0  0  0  0  0  0  0  0  0  0  0  0
   -4.3053    1.7140   -2.7397 H   0  0  0  0  0  0  0  0  0  0  0  0
   -6.0794    1.1634   -1.1716 H   0  0  0  0  0  0  0  0  0  0  0  0
   -6.8144    0.2027    0.9749 H   0  0  0  0  0  0  0  0  0  0  0  0
   -5.1559   -0.7274    2.5428 H   0  0  0  0  0  0  0  0  0  0  0  0
   -2.7747   -0.6783    2.0062 H   0  0  0  0  0  0  0  0  0  0  0  0
    2.7989   -2.2662    1.9637 H   0  0  0  0  0  0  0  0  0  0  0  0
    2.2261   -2.6453    0.3033 H   0  0  0  0  0  0  0  0  0  0  0  0
    4.3655   -0.4235    2.3359 H   0  0  0  0  0  0  0  0  0  0  0  0
    6.0526    1.1087    1.3968 H   0  0  0  0  0  0  0  0  0  0  0  0
    6.1830    1.4558   -1.0421 H   0  0  0  0  0  0  0  0  0  0  0  0
    4.6248    0.2651   -2.5387 H   0  0  0  0  0  0  0  0  0  0  0  0
    2.9377   -1.2685   -1.5947 H   0  0  0  0  0  0  0  0  0  0  0  0
  1  2  2  0  0  0  0
  2  3  1  0  0  0  0
  3  4  1  0  0  0  0
  4  5  1  0  0  0  0
  5  6  4  0  0  0  0
  6  7  4  0  0  0  0
  7  8  2  0  0  0  0
  8  9  4  0  0  0  0
  9 10  4  0  0  0  0
 10 11  2  0  0  0  0
 11 12  4  0  0  0  0
 12 13  2  0  0  0  0
  5 14  4  0  0  0  0
  9 14  4  0  0  0  0
 13 14  4  0  0  0  0
  4 15  1  0  0  0  0
 15 16  2  0  0  0  0
  2 17  1  0  0  0  0
 15 17  1  0  0  0  0
 17 18  1  0  0  0  0
 18 19  1  0  0  0  0
 19 20  4  0  0  0  0
 20 21  4  0  0  0  0
 21 22  4  0  0  0  0
 22 23  4  0  0  0  0
 19 24  4  0  0  0  0
 23 24  4  0  0  0  0
  6 25  1  0  0  0  0
  7 26  1  0  0  0  0
  8 27  1  0  0  0  0
 10 28  1  0  0  0  0
 11 29  1  0  0  0  0
 12 30  1  0  0  0  0
 13 31  1  0  0  0  0
 18 32  1  0  0  0  0
 18 33  1  0  0  0  0
 20 34  1  0  0  0  0
 21 35  1  0  0  0  0
 22 36  1  0  0  0  0
 23 37  1  0  0  0  0
 24 38  1  0  0  0  0
M  END
