 xtb: 6.7.1 (edcfbbe)
          09242620033D

 60110  0     0  0            999 V2000
   -6.1459    2.1262    0.0644 B   0  0  0  0  0  0  0  0  0  0  0  0
   -5.8565    0.4734   -0.3096 B   0  0  0  0  0  0  0  0  0  0  0  0
   -4.8344    3.1990   -0.2322 B   0  0  0  0  0  0  0  0  0  0  0  0
   -4.5639    1.5366   -0.1444 B   0  0  0  0  0  0  0  0  0  0  0  0
   -4.2846   -0.1388   -0.1050 B   0  0  0  0  0  0  0  0  0  0  0  0
   -5.3118   -2.8787    0.1050 B   0  0  0  0  0  0  0  0  0  0  0  0
   -5.0270   -4.5337   -0.2572 B   0  0  0  0  0  0  0  0  0  0  0  0
   -4.0123   -1.7895   -0.0366 B   0  0  0  0  0  0  0  0  0  0  0  0
   -3.7369   -3.4650    0.0366 B   0  0  0  0  0  0  0  0  0  0  0  0
   -3.4613   -5.1253    0.1455 B   0  0  0  0  0  0  0  0  0  0  0  0
   -3.2558    2.6216   -0.0097 B   0  0  0  0  0  0  0  0  0  0  0  0
   -2.9781    0.9360    0.0006 B   0  0  0  0  0  0  0  0  0  0  0  0
   -1.9602    3.6730    0.2936 B   0  0  0  0  0  0  0  0  0  0  0  0
   -1.6785    2.0163    0.1088 B   0  0  0  0  0  0  0  0  0  0  0  0
   -1.3961    0.3461   -0.0072 B   0  0  0  0  0  0  0  0  0  0  0  0
   -2.4240   -2.3821   -0.0643 B   0  0  0  0  0  0  0  0  0  0  0  0
   -2.1432   -4.0671    0.0141 B   0  0  0  0  0  0  0  0  0  0  0  0
   -1.1207   -1.3113   -0.0020 B   0  0  0  0  0  0  0  0  0  0  0  0
   -0.8416   -2.9832   -0.0372 B   0  0  0  0  0  0  0  0  0  0  0  0
   -0.5605   -4.6436   -0.1621 B   0  0  0  0  0  0  0  0  0  0  0  0
   -0.3721    3.1002    0.1391 B   0  0  0  0  0  0  0  0  0  0  0  0
   -0.0896    1.4173    0.0727 B   0  0  0  0  0  0  0  0  0  0  0  0
    0.9402    4.1628    0.0205 B   0  0  0  0  0  0  0  0  0  0  0  0
    1.2145    2.4991    0.1198 B   0  0  0  0  0  0  0  0  0  0  0  0
    1.4926    0.8266    0.1174 B   0  0  0  0  0  0  0  0  0  0  0  0
    0.4644   -1.9014    0.0314 B   0  0  0  0  0  0  0  0  0  0  0  0
    0.7436   -3.5858    0.0622 B   0  0  0  0  0  0  0  0  0  0  0  0
    1.7696   -0.8300    0.0734 B   0  0  0  0  0  0  0  0  0  0  0  0
    2.0461   -2.5033    0.1440 B   0  0  0  0  0  0  0  0  0  0  0  0
    2.3168   -4.1653    0.3028 B   0  0  0  0  0  0  0  0  0  0  0  0
    2.5122    3.5805    0.2696 B   0  0  0  0  0  0  0  0  0  0  0  0
    2.7987    1.8981    0.1652 B   0  0  0  0  0  0  0  0  0  0  0  0
    3.8165    4.6327    0.5122 B   0  0  0  0  0  0  0  0  0  0  0  0
    4.1000    2.9761    0.3685 B   0  0  0  0  0  0  0  0  0  0  0  0
    4.3804    1.3031    0.2712 B   0  0  0  0  0  0  0  0  0  0  0  0
    3.3509   -1.4210    0.1639 B   0  0  0  0  0  0  0  0  0  0  0  0
    3.6303   -3.1059    0.1218 B   0  0  0  0  0  0  0  0  0  0  0  0
    4.6580   -0.3453    0.1758 B   0  0  0  0  0  0  0  0  0  0  0  0
    4.9408   -2.0189    0.1106 B   0  0  0  0  0  0  0  0  0  0  0  0
    5.2180   -3.6782   -0.0119 B   0  0  0  0  0  0  0  0  0  0  0  0
    5.4072    4.0520    0.1919 B   0  0  0  0  0  0  0  0  0  0  0  0
    5.6702    2.3875    0.5222 B   0  0  0  0  0  0  0  0  0  0  0  0
    6.2428   -0.9528    0.0591 B   0  0  0  0  0  0  0  0  0  0  0  0
    6.5089   -2.6155    0.4045 B   0  0  0  0  0  0  0  0  0  0  0  0
   -7.1801    2.5348    0.4380 H   0  0  0  0  0  0  0  0  0  0  0  0
   -6.6975   -0.1615   -0.8225 H   0  0  0  0  0  0  0  0  0  0  0  0
   -5.0580    4.2926   -0.6015 H   0  0  0  0  0  0  0  0  0  0  0  0
   -6.3372   -2.5494    0.5672 H   0  0  0  0  0  0  0  0  0  0  0  0
   -5.8442   -5.2560   -0.6893 H   0  0  0  0  0  0  0  0  0  0  0  0
   -3.3455   -6.2313    0.5268 H   0  0  0  0  0  0  0  0  0  0  0  0
   -2.1655    4.8002    0.5604 H   0  0  0  0  0  0  0  0  0  0  0  0
   -0.3709   -5.7844   -0.3781 H   0  0  0  0  0  0  0  0  0  0  0  0
    0.7629    5.3099   -0.1713 H   0  0  0  0  0  0  0  0  0  0  0  0
    2.5060   -5.3013    0.5424 H   0  0  0  0  0  0  0  0  0  0  0  0
    3.6777    5.7287    0.9142 H   0  0  0  0  0  0  0  0  0  0  0  0
    5.4692   -4.7604   -0.3965 H   0  0  0  0  0  0  0  0  0  0  0  0
    6.2465    4.7881   -0.1685 H   0  0  0  0  0  0  0  0  0  0  0  0
    6.6632    2.0420    1.0398 H   0  0  0  0  0  0  0  0  0  0  0  0
    7.1128   -0.3035   -0.3819 H   0  0  0  0  0  0  0  0  0  0  0  0
    7.5141   -3.0391    0.8359 H   0  0  0  0  0  0  0  0  0  0  0  0
  1  2  1  0  0  0  0
  1  3  1  0  0  0  0
  1  4  1  0  0  0  0
  2  4  1  0  0  0  0
  3  4  1  0  0  0  0
  2  5  1  0  0  0  0
  4  5  1  0  0  0  0
  6  7  1  0  0  0  0
  5  8  1  0  0  0  0
  6  8  1  0  0  0  0
  6  9  1  0  0  0  0
  7  9  1  0  0  0  0
  8  9  1  0  0  0  0
  7 10  1  0  0  0  0
  9 10  1  0  0  0  0
  3 11  1  0  0  0  0
  4 11  1  0  0  0  0
  4 12  1  0  0  0  0
  5 12  1  0  0  0  0
 11 12  1  0  0  0  0
 11 13  1  0  0  0  0
 11 14  1  0  0  0  0
 12 14  1  0  0  0  0
 13 14  1  0  0  0  0
 12 15  1  0  0  0  0
 14 15  1  0  0  0  0
  8 16  1  0  0  0  0
  9 16  1  0  0  0  0
  9 17  1  0  0  0  0
 10 17  1  0  0  0  0
 16 17  1  0  0  0  0
 15 18  1  0  0  0  0
 16 18  1  0  0  0  0
 16 19  1  0  0  0  0
 17 19  1  0  0  0  0
 18 19  1  0  0  0  0
 17 20  1  0  0  0  0
 19 20  1  0  0  0  0
 13 21  1  0  0  0  0
 14 21  1  0  0  0  0
 14 22  1  0  0  0  0
 15 22  1  0  0  0  0
 21 22  1  0  0  0  0
 21 23  1  0  0  0  0
 21 24  1  0  0  0  0
 22 24  1  0  0  0  0
 23 24  1  0  0  0  0
 22 25  1  0  0  0  0
 24 25  1  0  0  0  0
 18 26  1  0  0  0  0
 19 26  1  0  0  0  0
 19 27  1  0  0  0  0
 20 27  1  0  0  0  0
 26 27  1  0  0  0  0
 25 28  1  0  0  0  0
 26 28  1  0  0  0  0
 26 29  1  0  0  0  0
 27 29  1  0  0  0  0
 28 29  1  0  0  0  0
 27 30  1  0  0  0  0
 29 30  1  0  0  0  0
 23 31  1  0  0  0  0
 24 31  1  0  0  0  0
 24 32  1  0  0  0  0
 25 32  1  0  0  0  0
 31 32  1  0  0  0  0
 31 33  1  0  0  0  0
 31 34  1  0  0  0  0
 32 34  1  0  0  0  0
 33 34  1  0  0  0  0
 32 35  1  0  0  0  0
 34 35  1  0  0  0  0
 28 36  1  0  0  0  0
 29 36  1  0  0  0  0
 29 37  1  0  0  0  0
 30 37  1  0  0  0  0
 36 37  1  0  0  0  0
 35 38  1  0  0  0  0
 36 38  1  0  0  0  0
 36 39  1  0  0  0  0
 37 39  1  0  0  0  0
 38 39  1  0  0  0  0
 37 40  1  0  0  0  0
 39 40  1  0  0  0  0
 33 41  1  0  0  0  0
 34 41  1  0  0  0  0
 34 42  1  0  0  0  0
 35 42  1  0  0  0  0
 41 42  1  0  0  0  0
 38 43  1  0  0  0  0
 39 43  1  0  0  0  0
 39 44  1  0  0  0  0
 40 44  1  0  0  0  0
 43 44  1  0  0  0  0
  1 45  1  0  0  0  0
  2 46  1  0  0  0  0
  3 47  1  0  0  0  0
  6 48  1  0  0  0  0
  7 49  1  0  0  0  0
 10 50  1  0  0  0  0
 13 51  1  0  0  0  0
 20 52  1  0  0  0  0
 23 53  1  0  0  0  0
 30 54  1  0  0  0  0
 33 55  1  0  0  0  0
 40 56  1  0  0  0  0
 41 57  1  0  0  0  0
 42 58  1  0  0  0  0
 43 59  1  0  0  0  0
 44 60  1  0  0  0  0
M  END
