 xtb: 6.7.1 (edcfbbe)
          09242615423D

 54 56  0     0  0            999 V2000
    1.7914   -3.0501    0.3702 C   0  0  0  0  0  0  0  0  0  0  0  0
    1.8216   -1.7217    0.2727 C   0  0  0  0  0  0  0  0  0  0  0  0
    3.0540   -0.9895   -0.0518 C   0  0  0  0  0  0  0  0  0  0  0  0
    4.2993   -1.4140    0.4125 C   0  0  0  0  0  0  0  0  0  0  0  0
    5.4440   -0.7226    0.0796 C   0  0  0  0  0  0  0  0  0  0  0  0
    5.3706    0.4109   -0.7295 C   0  0  0  0  0  0  0  0  0  0  0  0
    6.6196    1.1182   -1.0689 C   0  0  0  0  0  0  0  0  0  0  0  0
    7.7192    0.7978   -0.6875 O   0  0  0  0  0  0  0  0  0  0  0  0
    6.4330    2.1853   -1.8670 O   0  0  0  0  0  0  0  0  0  0  0  0
    4.1299    0.8450   -1.1930 C   0  0  0  0  0  0  0  0  0  0  0  0
    2.9873    0.1530   -0.8517 C   0  0  0  0  0  0  0  0  0  0  0  0
    0.5860   -0.9231    0.4243 C   0  0  0  0  0  0  0  0  0  0  0  0
   -0.5111   -1.2180   -0.3698 C   0  0  0  0  0  0  0  0  0  0  0  0
   -1.7068   -0.5123   -0.2981 C   0  0  0  0  0  0  0  0  0  0  0  0
   -1.7929    0.5530    0.5995 C   0  0  0  0  0  0  0  0  0  0  0  0
   -0.6982    0.8218    1.4163 C   0  0  0  0  0  0  0  0  0  0  0  0
    0.4884    0.1139    1.3538 C   0  0  0  0  0  0  0  0  0  0  0  0
    1.6225    0.4550    2.2735 C   0  0  0  0  0  0  0  0  0  0  0  0
   -3.0361    1.4096    0.7510 C   0  0  0  0  0  0  0  0  0  0  0  0
   -3.7354    1.0305    2.0642 C   0  0  0  0  0  0  0  0  0  0  0  0
   -2.6739    2.9018    0.7942 C   0  0  0  0  0  0  0  0  0  0  0  0
   -3.9809    1.2005   -0.4384 C   0  0  0  0  0  0  0  0  0  0  0  0
   -4.1564   -0.2690   -0.7802 C   0  0  0  0  0  0  0  0  0  0  0  0
   -2.8406   -0.9216   -1.2199 C   0  0  0  0  0  0  0  0  0  0  0  0
   -2.4859   -0.4971   -2.6521 C   0  0  0  0  0  0  0  0  0  0  0  0
   -3.0465   -2.4435   -1.1892 C   0  0  0  0  0  0  0  0  0  0  0  0
    2.6672   -3.6569    0.2157 H   0  0  0  0  0  0  0  0  0  0  0  0
    0.8775   -3.5717    0.5986 H   0  0  0  0  0  0  0  0  0  0  0  0
    4.3619   -2.2812    1.0527 H   0  0  0  0  0  0  0  0  0  0  0  0
    6.4122   -1.0398    0.4366 H   0  0  0  0  0  0  0  0  0  0  0  0
    7.2887    2.6008   -2.0544 H   0  0  0  0  0  0  0  0  0  0  0  0
    4.0730    1.7235   -1.8165 H   0  0  0  0  0  0  0  0  0  0  0  0
    2.0249    0.4879   -1.2114 H   0  0  0  0  0  0  0  0  0  0  0  0
   -0.4091   -2.0248   -1.0795 H   0  0  0  0  0  0  0  0  0  0  0  0
   -0.7673    1.6198    2.1403 H   0  0  0  0  0  0  0  0  0  0  0  0
    1.2592    1.0012    3.1411 H   0  0  0  0  0  0  0  0  0  0  0  0
    2.1320   -0.4446    2.6124 H   0  0  0  0  0  0  0  0  0  0  0  0
    2.3545    1.0800    1.7609 H   0  0  0  0  0  0  0  0  0  0  0  0
   -3.0737    1.2007    2.9100 H   0  0  0  0  0  0  0  0  0  0  0  0
   -4.0163   -0.0196    2.0672 H   0  0  0  0  0  0  0  0  0  0  0  0
   -4.6323    1.6313    2.2010 H   0  0  0  0  0  0  0  0  0  0  0  0
   -2.1752    3.1721    1.7205 H   0  0  0  0  0  0  0  0  0  0  0  0
   -2.0204    3.1599   -0.0366 H   0  0  0  0  0  0  0  0  0  0  0  0
   -3.5804    3.4994    0.7187 H   0  0  0  0  0  0  0  0  0  0  0  0
   -4.9527    1.6420   -0.2059 H   0  0  0  0  0  0  0  0  0  0  0  0
   -3.5808    1.7292   -1.3057 H   0  0  0  0  0  0  0  0  0  0  0  0
   -4.8933   -0.3748   -1.5799 H   0  0  0  0  0  0  0  0  0  0  0  0
   -4.5423   -0.8003    0.0917 H   0  0  0  0  0  0  0  0  0  0  0  0
   -1.5598   -0.9697   -2.9710 H   0  0  0  0  0  0  0  0  0  0  0  0
   -2.3509    0.5797   -2.7170 H   0  0  0  0  0  0  0  0  0  0  0  0
   -3.2770   -0.7901   -3.3395 H   0  0  0  0  0  0  0  0  0  0  0  0
   -3.9702   -2.6977   -1.7057 H   0  0  0  0  0  0  0  0  0  0  0  0
   -3.1166   -2.7973   -0.1627 H   0  0  0  0  0  0  0  0  0  0  0  0
   -2.2350   -2.9723   -1.6807 H   0  0  0  0  0  0  0  0  0  0  0  0
  1  2  2  0  0  0  0
  2  3  1  0  0  0  0
  3  4  4  0  0  0  0
  4  5  4  0  0  0  0
  5  6  4  0  0  0  0
  6  7  1  0  0  0  0
  7  8  2  0  0  0  0
  7  9  1  0  0  0  0
  6 10  4  0  0  0  0
  3 11  4  0  0  0  0
 10 11  4  0  0  0  0
  2 12  1  0  0  0  0
 12 13  4  0  0  0  0
 13 14  4  0  0  0  0
 14 15  4  0  0  0  0
 15 16  4  0  0  0  0
 12 17  4  0  0  0  0
 16 17  4  0  0  0  0
 17 18  1  0  0  0  0
 15 19  1  0  0  0  0
 19 20  1  0  0  0  0
 19 21  1  0  0  0  0
 19 22  1  0  0  0  0
 22 23  1  0  0  0  0
 14 24  1  0  0  0  0
 23 24  1  0  0  0  0
 24 25  1  0  0  0  0
 24 26  1  0  0  0  0
  1 27  1  0  0  0  0
  1 28  1  0  0  0  0
  4 29  1  0  0  0  0
  5 30  1  0  0  0  0
  9 31  1  0  0  0  0
 10 32  1  0  0  0  0
 11 33  1  0  0  0  0
 13 34  1  0  0  0  0
 16 35  1  0  0  0  0
 18 36  1  0  0  0  0
 18 37  1  0  0  0  0
 18 38  1  0  0  0  0
 20 39  1  0  0  0  0
 20 40  1  0  0  0  0
 20 41  1  0  0  0  0
 21 42  1  0  0  0  0
 21 43  1  0  0  0  0
 21 44  1  0  0  0  0
 22 45  1  0  0  0  0
 22 46  1  0  0  0  0
 23 47  1  0  0  0  0
 23 48  1  0  0  0  0
 25 49  1  0  0  0  0
 25 50  1  0  0  0  0
 25 51  1  0  0  0  0
 26 52  1  0  0  0  0
 26 53  1  0  0  0  0
 26 54  1  0  0  0  0
M  END
