 xtb: 6.7.1 (edcfbbe)
          09242615473D

 57 60  0     0  0            999 V2000
   -7.4854   -0.6805   -0.1889 C   0  0  0  0  0  0  0  0  0  0  0  0
   -6.8911    0.5739    0.0373 O   0  0  0  0  0  0  0  0  0  0  0  0
   -5.5394    0.6546    0.0836 C   0  0  0  0  0  0  0  0  0  0  0  0
   -4.6744   -0.4133   -0.1156 C   0  0  0  0  0  0  0  0  0  0  0  0
   -3.3096   -0.2042   -0.0241 C   0  0  0  0  0  0  0  0  0  0  0  0
   -2.8127    1.0592    0.2692 C   0  0  0  0  0  0  0  0  0  0  0  0
   -3.6639    2.1478    0.4524 C   0  0  0  0  0  0  0  0  0  0  0  0
   -5.0273    1.9520    0.3594 C   0  0  0  0  0  0  0  0  0  0  0  0
   -5.9717    2.9183    0.5183 O   0  0  0  0  0  0  0  0  0  0  0  0
   -5.5366    4.2303    0.7792 C   0  0  0  0  0  0  0  0  0  0  0  0
   -1.3532    1.0254    0.3551 C   0  0  0  0  0  0  0  0  0  0  0  0
   -0.5981    1.9549    0.5253 O   0  0  0  0  0  0  0  0  0  0  0  0
   -0.9348   -0.4401    0.2100 C   0  0  0  0  0  0  0  0  0  0  0  0
    0.2633   -0.5763   -0.7298 C   0  0  0  0  0  0  0  0  0  0  0  0
    0.8148   -2.0028   -0.8360 C   0  0  0  0  0  0  0  0  0  0  0  0
    1.4345   -2.5277    0.4617 C   0  0  0  0  0  0  0  0  0  0  0  0
    2.7563   -1.8367    0.7845 C   0  0  0  0  0  0  0  0  0  0  0  0
    3.6878   -2.0332   -0.3089 N   0  0  0  0  0  0  0  0  0  0  0  0
    5.0570   -1.6558    0.0147 C   0  0  0  0  0  0  0  0  0  0  0  0
    5.2421   -0.1947    0.3474 C   0  0  0  0  0  0  0  0  0  0  0  0
    5.1022    0.2562    1.6548 C   0  0  0  0  0  0  0  0  0  0  0  0
    5.1976    1.6039    1.9526 C   0  0  0  0  0  0  0  0  0  0  0  0
    5.4348    2.5225    0.9445 C   0  0  0  0  0  0  0  0  0  0  0  0
    5.5854    2.0842   -0.3598 C   0  0  0  0  0  0  0  0  0  0  0  0
    5.4899    0.7357   -0.6549 C   0  0  0  0  0  0  0  0  0  0  0  0
    3.1842   -1.4278   -1.5260 C   0  0  0  0  0  0  0  0  0  0  0  0
    1.8789   -2.1071   -1.9336 C   0  0  0  0  0  0  0  0  0  0  0  0
   -2.2022   -1.1925   -0.2252 C   0  0  0  0  0  0  0  0  0  0  0  0
   -7.2107   -1.4015    0.5880 H   0  0  0  0  0  0  0  0  0  0  0  0
   -7.2162   -1.0837   -1.1707 H   0  0  0  0  0  0  0  0  0  0  0  0
   -8.5594   -0.5062   -0.1543 H   0  0  0  0  0  0  0  0  0  0  0  0
   -5.0529   -1.3983   -0.3384 H   0  0  0  0  0  0  0  0  0  0  0  0
   -3.2346    3.1120    0.6697 H   0  0  0  0  0  0  0  0  0  0  0  0
   -6.4426    4.8288    0.8585 H   0  0  0  0  0  0  0  0  0  0  0  0
   -4.9158    4.6174   -0.0352 H   0  0  0  0  0  0  0  0  0  0  0  0
   -4.9789    4.2903    1.7194 H   0  0  0  0  0  0  0  0  0  0  0  0
   -0.6378   -0.7642    1.2129 H   0  0  0  0  0  0  0  0  0  0  0  0
    1.0355    0.1100   -0.3814 H   0  0  0  0  0  0  0  0  0  0  0  0
   -0.0409   -0.2459   -1.7272 H   0  0  0  0  0  0  0  0  0  0  0  0
   -0.0191   -2.6617   -1.1070 H   0  0  0  0  0  0  0  0  0  0  0  0
    0.7481   -2.4055    1.3006 H   0  0  0  0  0  0  0  0  0  0  0  0
    1.6297   -3.5952    0.3410 H   0  0  0  0  0  0  0  0  0  0  0  0
    3.1856   -2.2898    1.6826 H   0  0  0  0  0  0  0  0  0  0  0  0
    2.5820   -0.7678    0.9950 H   0  0  0  0  0  0  0  0  0  0  0  0
    5.6768   -1.9237   -0.8462 H   0  0  0  0  0  0  0  0  0  0  0  0
    5.3666   -2.2716    0.8650 H   0  0  0  0  0  0  0  0  0  0  0  0
    4.9230   -0.4564    2.4478 H   0  0  0  0  0  0  0  0  0  0  0  0
    5.0858    1.9380    2.9739 H   0  0  0  0  0  0  0  0  0  0  0  0
    5.5062    3.5751    1.1753 H   0  0  0  0  0  0  0  0  0  0  0  0
    5.7782    2.7951   -1.1504 H   0  0  0  0  0  0  0  0  0  0  0  0
    5.6162    0.3999   -1.6748 H   0  0  0  0  0  0  0  0  0  0  0  0
    3.0239   -0.3421   -1.4148 H   0  0  0  0  0  0  0  0  0  0  0  0
    3.9266   -1.5796   -2.3146 H   0  0  0  0  0  0  0  0  0  0  0  0
    2.0885   -3.1623   -2.1195 H   0  0  0  0  0  0  0  0  0  0  0  0
    1.5136   -1.6622   -2.8612 H   0  0  0  0  0  0  0  0  0  0  0  0
   -2.1416   -1.4666   -1.2817 H   0  0  0  0  0  0  0  0  0  0  0  0
   -2.3642   -2.1084    0.3451 H   0  0  0  0  0  0  0  0  0  0  0  0
  1  2  1  0  0  0  0
  2  3  1  0  0  0  0
  3  4  4  0  0  0  0
  4  5  4  0  0  0  0
  5  6  4  0  0  0  0
  6  7  4  0  0  0  0
  3  8  4  0  0  0  0
  7  8  4  0  0  0  0
  8  9  1  0  0  0  0
  9 10  1  0  0  0  0
  6 11  1  0  0  0  0
 11 12  2  0  0  0  0
 11 13  1  0  0  0  0
 13 14  1  0  0  0  0
 14 15  1  0  0  0  0
 15 16  1  0  0  0  0
 16 17  1  0  0  0  0
 17 18  1  0  0  0  0
 18 19  1  0  0  0  0
 19 20  1  0  0  0  0
 20 21  4  0  0  0  0
 21 22  4  0  0  0  0
 22 23  4  0  0  0  0
 23 24  4  0  0  0  0
 20 25  4  0  0  0  0
 24 25  4  0  0  0  0
 18 26  1  0  0  0  0
 15 27  1  0  0  0  0
 26 27  1  0  0  0  0
  5 28  1  0  0  0  0
 13 28  1  0  0  0  0
  1 29  1  0  0  0  0
  1 30  1  0  0  0  0
  1 31  1  0  0  0  0
  4 32  1  0  0  0  0
  7 33  1  0  0  0  0
 10 34  1  0  0  0  0
 10 35  1  0  0  0  0
 10 36  1  0  0  0  0
 13 37  1  0  0  0  0
 14 38  1  0  0  0  0
 14 39  1  0  0  0  0
 15 40  1  0  0  0  0
 16 41  1  0  0  0  0
 16 42  1  0  0  0  0
 17 43  1  0  0  0  0
 17 44  1  0  0  0  0
 19 45  1  0  0  0  0
 19 46  1  0  0  0  0
 21 47  1  0  0  0  0
 22 48  1  0  0  0  0
 23 49  1  0  0  0  0
 24 50  1  0  0  0  0
 25 51  1  0  0  0  0
 26 52  1  0  0  0  0
 26 53  1  0  0  0  0
 27 54  1  0  0  0  0
 27 55  1  0  0  0  0
 28 56  1  0  0  0  0
 28 57  1  0  0  0  0
M  END
