 xtb: 6.7.1 (edcfbbe)
          09242615343D

 30 32  0     0  0            999 V2000
    2.2125   -2.9130    0.0553 O   0  0  0  0  0  0  0  0  0  0  0  0
    1.6069   -1.8338    0.0137 C   0  0  0  0  0  0  0  0  0  0  0  0
    0.1736   -1.7371   -0.1283 C   0  0  0  0  0  0  0  0  0  0  0  0
   -0.4596   -0.5387   -0.1646 C   0  0  0  0  0  0  0  0  0  0  0  0
   -1.9106   -0.3757   -0.2814 C   0  0  0  0  0  0  0  0  0  0  0  0
   -2.7168   -1.3618   -0.8540 C   0  0  0  0  0  0  0  0  0  0  0  0
   -4.0802   -1.1921   -0.9440 C   0  0  0  0  0  0  0  0  0  0  0  0
   -4.6769   -0.0289   -0.4590 C   0  0  0  0  0  0  0  0  0  0  0  0
   -6.0210    0.0928   -0.5613 O   0  0  0  0  0  0  0  0  0  0  0  0
   -3.8800    0.9628    0.1049 C   0  0  0  0  0  0  0  0  0  0  0  0
   -2.5139    0.7917    0.1869 C   0  0  0  0  0  0  0  0  0  0  0  0
    0.1988    0.6339   -0.0696 O   0  0  0  0  0  0  0  0  0  0  0  0
    1.5475    0.6399    0.0647 C   0  0  0  0  0  0  0  0  0  0  0  0
    2.1712    1.8750    0.1526 C   0  0  0  0  0  0  0  0  0  0  0  0
    3.5531    1.9277    0.2925 C   0  0  0  0  0  0  0  0  0  0  0  0
    4.1326    3.1463    0.3737 O   0  0  0  0  0  0  0  0  0  0  0  0
    4.3061    0.7591    0.3475 C   0  0  0  0  0  0  0  0  0  0  0  0
    3.6910   -0.4820    0.2596 C   0  0  0  0  0  0  0  0  0  0  0  0
    4.4258   -1.5899    0.3142 O   0  0  0  0  0  0  0  0  0  0  0  0
    2.2849   -0.5506    0.1124 C   0  0  0  0  0  0  0  0  0  0  0  0
   -0.3820   -2.6578   -0.1800 H   0  0  0  0  0  0  0  0  0  0  0  0
   -2.2706   -2.2594   -1.2509 H   0  0  0  0  0  0  0  0  0  0  0  0
   -4.7084   -1.9462   -1.3900 H   0  0  0  0  0  0  0  0  0  0  0  0
   -6.3099    0.9374   -0.1937 H   0  0  0  0  0  0  0  0  0  0  0  0
   -4.3356    1.8690    0.4815 H   0  0  0  0  0  0  0  0  0  0  0  0
   -1.9029    1.5630    0.6291 H   0  0  0  0  0  0  0  0  0  0  0  0
    1.5965    2.7839    0.1110 H   0  0  0  0  0  0  0  0  0  0  0  0
    5.0891    3.0510    0.4656 H   0  0  0  0  0  0  0  0  0  0  0  0
    5.3797    0.7963    0.4583 H   0  0  0  0  0  0  0  0  0  0  0  0
    3.7991   -2.3627    0.2332 H   0  0  0  0  0  0  0  0  0  0  0  0
  1  2  2  0  0  0  0
  2  3  1  0  0  0  0
  3  4  2  0  0  0  0
  4  5  1  0  0  0  0
  5  6  4  0  0  0  0
  6  7  4  0  0  0  0
  7  8  4  0  0  0  0
  8  9  1  0  0  0  0
  8 10  4  0  0  0  0
  5 11  4  0  0  0  0
 10 11  4  0  0  0  0
  4 12  1  0  0  0  0
 12 13  1  0  0  0  0
 13 14  4  0  0  0  0
 14 15  4  0  0  0  0
 15 16  1  0  0  0  0
 15 17  4  0  0  0  0
 17 18  4  0  0  0  0
 18 19  1  0  0  0  0
  2 20  1  0  0  0  0
 13 20  4  0  0  0  0
 18 20  4  0  0  0  0
  3 21  1  0  0  0  0
  6 22  1  0  0  0  0
  7 23  1  0  0  0  0
  9 24  1  0  0  0  0
 10 25  1  0  0  0  0
 11 26  1  0  0  0  0
 14 27  1  0  0  0  0
 16 28  1  0  0  0  0
 17 29  1  0  0  0  0
 19 30  1  0  0  0  0
M  END
