 xtb: 6.7.1 (edcfbbe)
          09242620043D

 60110  0     0  0            999 V2000
   -5.8908    2.9159    0.4180 B   0  0  0  0  0  0  0  0  0  0  0  0
   -5.8200    1.2703   -0.0964 B   0  0  0  0  0  0  0  0  0  0  0  0
   -4.4563    3.8300    0.1480 B   0  0  0  0  0  0  0  0  0  0  0  0
   -4.3998    2.1453    0.1180 B   0  0  0  0  0  0  0  0  0  0  0  0
   -4.3389    0.4497    0.0494 B   0  0  0  0  0  0  0  0  0  0  0  0
   -5.7089   -2.1444    0.0990 B   0  0  0  0  0  0  0  0  0  0  0  0
   -5.6427   -3.7944   -0.3761 B   0  0  0  0  0  0  0  0  0  0  0  0
   -4.2810   -1.2239    0.0105 B   0  0  0  0  0  0  0  0  0  0  0  0
   -4.2236   -2.9211   -0.0398 B   0  0  0  0  0  0  0  0  0  0  0  0
   -4.1631   -4.6068   -0.0438 B   0  0  0  0  0  0  0  0  0  0  0  0
   -2.9605    3.0460    0.2544 B   0  0  0  0  0  0  0  0  0  0  0  0
   -2.9054    1.3342    0.2560 B   0  0  0  0  0  0  0  0  0  0  0  0
   -1.5370    3.9092    0.5537 B   0  0  0  0  0  0  0  0  0  0  0  0
   -1.4744    2.2352    0.3463 B   0  0  0  0  0  0  0  0  0  0  0  0
   -1.4126    0.5488    0.1848 B   0  0  0  0  0  0  0  0  0  0  0  0
   -2.7832   -2.0133   -0.0575 B   0  0  0  0  0  0  0  0  0  0  0  0
   -2.7202   -3.7199   -0.1311 B   0  0  0  0  0  0  0  0  0  0  0  0
   -1.3529   -1.1274    0.0822 B   0  0  0  0  0  0  0  0  0  0  0  0
   -1.2911   -2.8117   -0.1140 B   0  0  0  0  0  0  0  0  0  0  0  0
   -1.2270   -4.4788   -0.3820 B   0  0  0  0  0  0  0  0  0  0  0  0
   -0.0413    3.1271    0.5337 B   0  0  0  0  0  0  0  0  0  0  0  0
    0.0248    1.4458    0.1845 B   0  0  0  0  0  0  0  0  0  0  0  0
    1.3908    3.9987    0.7133 B   0  0  0  0  0  0  0  0  0  0  0  0
    1.4534    2.3327    0.4416 B   0  0  0  0  0  0  0  0  0  0  0  0
    1.5176    0.6565    0.1623 B   0  0  0  0  0  0  0  0  0  0  0  0
    0.1439   -1.9131    0.0069 B   0  0  0  0  0  0  0  0  0  0  0  0
    0.2040   -3.6170   -0.0860 B   0  0  0  0  0  0  0  0  0  0  0  0
    1.5778   -1.0191    0.0373 B   0  0  0  0  0  0  0  0  0  0  0  0
    1.6361   -2.7175    0.0380 B   0  0  0  0  0  0  0  0  0  0  0  0
    1.6920   -4.4071    0.0771 B   0  0  0  0  0  0  0  0  0  0  0  0
    2.8856    3.2447    0.4208 B   0  0  0  0  0  0  0  0  0  0  0  0
    2.9477    1.5334    0.4052 B   0  0  0  0  0  0  0  0  0  0  0  0
    4.3265    4.1284    0.3886 B   0  0  0  0  0  0  0  0  0  0  0  0
    4.3856    2.4409    0.4085 B   0  0  0  0  0  0  0  0  0  0  0  0
    4.4432    0.7435    0.3542 B   0  0  0  0  0  0  0  0  0  0  0  0
    3.0686   -1.8171    0.1348 B   0  0  0  0  0  0  0  0  0  0  0  0
    3.1286   -3.5150   -0.0594 B   0  0  0  0  0  0  0  0  0  0  0  0
    4.5029   -0.9251    0.2368 B   0  0  0  0  0  0  0  0  0  0  0  0
    4.5675   -2.6122    0.0469 B   0  0  0  0  0  0  0  0  0  0  0  0
    4.6286   -4.2786   -0.2264 B   0  0  0  0  0  0  0  0  0  0  0  0
    5.8062    3.3121    0.7443 B   0  0  0  0  0  0  0  0  0  0  0  0
    5.8745    1.6672    0.2627 B   0  0  0  0  0  0  0  0  0  0  0  0
    5.9964   -1.7213    0.0264 B   0  0  0  0  0  0  0  0  0  0  0  0
    6.0486   -3.4188    0.2395 B   0  0  0  0  0  0  0  0  0  0  0  0
   -6.8607    3.4078    0.8585 H   0  0  0  0  0  0  0  0  0  0  0  0
   -6.7467    0.7945   -0.6346 H   0  0  0  0  0  0  0  0  0  0  0  0
   -4.5473    4.9595   -0.1671 H   0  0  0  0  0  0  0  0  0  0  0  0
   -6.6806   -1.7191    0.5970 H   0  0  0  0  0  0  0  0  0  0  0  0
   -6.5515   -4.3730   -0.8397 H   0  0  0  0  0  0  0  0  0  0  0  0
   -4.1848   -5.7413    0.2633 H   0  0  0  0  0  0  0  0  0  0  0  0
   -1.5914    5.0647    0.7709 H   0  0  0  0  0  0  0  0  0  0  0  0
   -1.1834   -5.6050   -0.7179 H   0  0  0  0  0  0  0  0  0  0  0  0
    1.3649    5.1137    1.0872 H   0  0  0  0  0  0  0  0  0  0  0  0
    1.7381   -5.5687    0.2552 H   0  0  0  0  0  0  0  0  0  0  0  0
    4.3589    5.2632    0.0843 H   0  0  0  0  0  0  0  0  0  0  0  0
    4.7357   -5.3664   -0.6581 H   0  0  0  0  0  0  0  0  0  0  0  0
    6.7091    3.8839    1.2288 H   0  0  0  0  0  0  0  0  0  0  0  0
    6.8610    1.2469   -0.2059 H   0  0  0  0  0  0  0  0  0  0  0  0
    6.9437   -1.1550   -0.3601 H   0  0  0  0  0  0  0  0  0  0  0  0
    6.9896   -4.0010    0.6301 H   0  0  0  0  0  0  0  0  0  0  0  0
  1  2  1  0  0  0  0
  1  3  1  0  0  0  0
  1  4  1  0  0  0  0
  2  4  1  0  0  0  0
  3  4  1  0  0  0  0
  2  5  1  0  0  0  0
  4  5  1  0  0  0  0
  6  7  1  0  0  0  0
  5  8  1  0  0  0  0
  6  8  1  0  0  0  0
  6  9  1  0  0  0  0
  7  9  1  0  0  0  0
  8  9  1  0  0  0  0
  7 10  1  0  0  0  0
  9 10  1  0  0  0  0
  3 11  1  0  0  0  0
  4 11  1  0  0  0  0
  4 12  1  0  0  0  0
  5 12  1  0  0  0  0
 11 12  1  0  0  0  0
 11 13  1  0  0  0  0
 11 14  1  0  0  0  0
 12 14  1  0  0  0  0
 13 14  1  0  0  0  0
 12 15  1  0  0  0  0
 14 15  1  0  0  0  0
  8 16  1  0  0  0  0
  9 16  1  0  0  0  0
  9 17  1  0  0  0  0
 10 17  1  0  0  0  0
 16 17  1  0  0  0  0
 15 18  1  0  0  0  0
 16 18  1  0  0  0  0
 16 19  1  0  0  0  0
 17 19  1  0  0  0  0
 18 19  1  0  0  0  0
 17 20  1  0  0  0  0
 19 20  1  0  0  0  0
 13 21  1  0  0  0  0
 14 21  1  0  0  0  0
 14 22  1  0  0  0  0
 15 22  1  0  0  0  0
 21 22  1  0  0  0  0
 21 23  1  0  0  0  0
 21 24  1  0  0  0  0
 22 24  1  0  0  0  0
 23 24  1  0  0  0  0
 22 25  1  0  0  0  0
 24 25  1  0  0  0  0
 18 26  1  0  0  0  0
 19 26  1  0  0  0  0
 19 27  1  0  0  0  0
 20 27  1  0  0  0  0
 26 27  1  0  0  0  0
 25 28  1  0  0  0  0
 26 28  1  0  0  0  0
 26 29  1  0  0  0  0
 27 29  1  0  0  0  0
 28 29  1  0  0  0  0
 27 30  1  0  0  0  0
 29 30  1  0  0  0  0
 23 31  1  0  0  0  0
 24 31  1  0  0  0  0
 24 32  1  0  0  0  0
 25 32  1  0  0  0  0
 31 32  1  0  0  0  0
 31 33  1  0  0  0  0
 31 34  1  0  0  0  0
 32 34  1  0  0  0  0
 33 34  1  0  0  0  0
 32 35  1  0  0  0  0
 34 35  1  0  0  0  0
 28 36  1  0  0  0  0
 29 36  1  0  0  0  0
 29 37  1  0  0  0  0
 30 37  1  0  0  0  0
 36 37  1  0  0  0  0
 35 38  1  0  0  0  0
 36 38  1  0  0  0  0
 36 39  1  0  0  0  0
 37 39  1  0  0  0  0
 38 39  1  0  0  0  0
 37 40  1  0  0  0  0
 39 40  1  0  0  0  0
 33 41  1  0  0  0  0
 34 41  1  0  0  0  0
 34 42  1  0  0  0  0
 35 42  1  0  0  0  0
 41 42  1  0  0  0  0
 38 43  1  0  0  0  0
 39 43  1  0  0  0  0
 39 44  1  0  0  0  0
 40 44  1  0  0  0  0
 43 44  1  0  0  0  0
  1 45  1  0  0  0  0
  2 46  1  0  0  0  0
  3 47  1  0  0  0  0
  6 48  1  0  0  0  0
  7 49  1  0  0  0  0
 10 50  1  0  0  0  0
 13 51  1  0  0  0  0
 20 52  1  0  0  0  0
 23 53  1  0  0  0  0
 30 54  1  0  0  0  0
 33 55  1  0  0  0  0
 40 56  1  0  0  0  0
 41 57  1  0  0  0  0
 42 58  1  0  0  0  0
 43 59  1  0  0  0  0
 44 60  1  0  0  0  0
M  END
