 xtb: 6.7.1 (edcfbbe)
          09242615253D

 29 30  0     0  0            999 V2000
    6.1680   -0.1152    0.0069 O   0  0  0  0  0  0  0  0  0  0  0  0
    4.8098   -0.1246   -0.0482 C   0  0  0  0  0  0  0  0  0  0  0  0
    4.0236    0.5273    0.8961 C   0  0  0  0  0  0  0  0  0  0  0  0
    2.6479    0.4926    0.8045 C   0  0  0  0  0  0  0  0  0  0  0  0
    2.0102   -0.1935   -0.2315 C   0  0  0  0  0  0  0  0  0  0  0  0
    0.5701   -0.2665   -0.3788 C   0  0  0  0  0  0  0  0  0  0  0  0
   -0.3477    0.2659    0.4416 C   0  0  0  0  0  0  0  0  0  0  0  0
   -1.7892    0.1891    0.2922 C   0  0  0  0  0  0  0  0  0  0  0  0
   -2.5882    0.7187    1.3040 C   0  0  0  0  0  0  0  0  0  0  0  0
   -3.9728    0.6717    1.2144 C   0  0  0  0  0  0  0  0  0  0  0  0
   -4.7011    1.2021    2.2333 O   0  0  0  0  0  0  0  0  0  0  0  0
   -4.5808    0.0975    0.1080 C   0  0  0  0  0  0  0  0  0  0  0  0
   -3.7919   -0.4295   -0.9087 C   0  0  0  0  0  0  0  0  0  0  0  0
   -4.4277   -0.9804   -1.9795 O   0  0  0  0  0  0  0  0  0  0  0  0
   -2.4109   -0.3856   -0.8192 C   0  0  0  0  0  0  0  0  0  0  0  0
    2.8184   -0.8411   -1.1731 C   0  0  0  0  0  0  0  0  0  0  0  0
    4.1924   -0.8121   -1.0894 C   0  0  0  0  0  0  0  0  0  0  0  0
    6.4613    0.3922    0.7733 H   0  0  0  0  0  0  0  0  0  0  0  0
    4.4982    1.0650    1.7073 H   0  0  0  0  0  0  0  0  0  0  0  0
    2.0652    1.0092    1.5509 H   0  0  0  0  0  0  0  0  0  0  0  0
    0.2460   -0.8247   -1.2474 H   0  0  0  0  0  0  0  0  0  0  0  0
   -0.0245    0.8101    1.3177 H   0  0  0  0  0  0  0  0  0  0  0  0
   -2.1454    1.1715    2.1767 H   0  0  0  0  0  0  0  0  0  0  0  0
   -5.6419    1.1047    2.0435 H   0  0  0  0  0  0  0  0  0  0  0  0
   -5.6557    0.0517    0.0153 H   0  0  0  0  0  0  0  0  0  0  0  0
   -3.7752   -1.3063   -2.6108 H   0  0  0  0  0  0  0  0  0  0  0  0
   -1.8203   -0.7964   -1.6251 H   0  0  0  0  0  0  0  0  0  0  0  0
    2.3529   -1.3791   -1.9867 H   0  0  0  0  0  0  0  0  0  0  0  0
    4.8095   -1.3140   -1.8177 H   0  0  0  0  0  0  0  0  0  0  0  0
  1  2  1  0  0  0  0
  2  3  4  0  0  0  0
  3  4  4  0  0  0  0
  4  5  4  0  0  0  0
  5  6  1  0  0  0  0
  6  7  2  0  0  0  0
  7  8  1  0  0  0  0
  8  9  4  0  0  0  0
  9 10  4  0  0  0  0
 10 11  1  0  0  0  0
 10 12  4  0  0  0  0
 12 13  4  0  0  0  0
 13 14  1  0  0  0  0
  8 15  4  0  0  0  0
 13 15  4  0  0  0  0
  5 16  4  0  0  0  0
  2 17  4  0  0  0  0
 16 17  4  0  0  0  0
  1 18  1  0  0  0  0
  3 19  1  0  0  0  0
  4 20  1  0  0  0  0
  6 21  1  0  0  0  0
  7 22  1  0  0  0  0
  9 23  1  0  0  0  0
 11 24  1  0  0  0  0
 12 25  1  0  0  0  0
 14 26  1  0  0  0  0
 15 27  1  0  0  0  0
 16 28  1  0  0  0  0
 17 29  1  0  0  0  0
M  END
