 xtb: 6.7.1 (edcfbbe)
          09242615483D

 40 40  0     0  0            999 V2000
    4.7059    0.8494    0.2618 C   0  0  0  0  0  0  0  0  0  0  0  0
    3.9205    0.1102    1.3433 C   0  0  0  0  0  0  0  0  0  0  0  0
    3.5136   -1.2122    0.9157 N   0  0  0  0  0  0  0  0  0  0  0  0
    4.4197   -2.3086    1.1610 C   0  0  0  0  0  0  0  0  0  0  0  0
    2.4027   -1.4349    0.1781 C   0  0  0  0  0  0  0  0  0  0  0  0
    2.0674   -2.5137   -0.2479 O   0  0  0  0  0  0  0  0  0  0  0  0
    1.6881   -0.2877    0.0122 O   0  0  0  0  0  0  0  0  0  0  0  0
    0.5401   -0.3258   -0.7673 C   0  0  0  0  0  0  0  0  0  0  0  0
    0.5351   -0.8818   -2.0385 C   0  0  0  0  0  0  0  0  0  0  0  0
   -0.6297   -0.8412   -2.7828 C   0  0  0  0  0  0  0  0  0  0  0  0
   -1.7721   -0.2505   -2.2720 C   0  0  0  0  0  0  0  0  0  0  0  0
   -1.7651    0.3119   -1.0033 C   0  0  0  0  0  0  0  0  0  0  0  0
   -2.9908    0.9949   -0.4426 C   0  0  0  0  0  0  0  0  0  0  0  0
   -2.7760    2.5071   -0.5702 C   0  0  0  0  0  0  0  0  0  0  0  0
   -3.1921    0.5834    0.9456 N   0  0  0  0  0  0  0  0  0  0  0  0
   -4.2657    1.3012    1.6012 C   0  0  0  0  0  0  0  0  0  0  0  0
   -3.4259   -0.8455    1.0274 C   0  0  0  0  0  0  0  0  0  0  0  0
   -0.5983    0.2740   -0.2532 C   0  0  0  0  0  0  0  0  0  0  0  0
    5.0092    1.8273    0.6255 H   0  0  0  0  0  0  0  0  0  0  0  0
    4.0865    0.9828   -0.6214 H   0  0  0  0  0  0  0  0  0  0  0  0
    5.5963    0.2909   -0.0174 H   0  0  0  0  0  0  0  0  0  0  0  0
    4.5350   -0.0087    2.2396 H   0  0  0  0  0  0  0  0  0  0  0  0
    3.0288    0.6831    1.6048 H   0  0  0  0  0  0  0  0  0  0  0  0
    4.5713   -2.4375    2.2348 H   0  0  0  0  0  0  0  0  0  0  0  0
    3.9768   -3.2122    0.7477 H   0  0  0  0  0  0  0  0  0  0  0  0
    5.3854   -2.1298    0.6830 H   0  0  0  0  0  0  0  0  0  0  0  0
    1.4241   -1.3506   -2.4287 H   0  0  0  0  0  0  0  0  0  0  0  0
   -0.6446   -1.2769   -3.7706 H   0  0  0  0  0  0  0  0  0  0  0  0
   -2.6770   -0.2296   -2.8624 H   0  0  0  0  0  0  0  0  0  0  0  0
   -3.8683    0.7151   -1.0607 H   0  0  0  0  0  0  0  0  0  0  0  0
   -2.4190    2.7326   -1.5727 H   0  0  0  0  0  0  0  0  0  0  0  0
   -3.6980    3.0579   -0.4057 H   0  0  0  0  0  0  0  0  0  0  0  0
   -2.0281    2.8348    0.1465 H   0  0  0  0  0  0  0  0  0  0  0  0
   -4.3963    0.8904    2.6014 H   0  0  0  0  0  0  0  0  0  0  0  0
   -5.2248    1.2167    1.0647 H   0  0  0  0  0  0  0  0  0  0  0  0
   -4.0071    2.3525    1.7001 H   0  0  0  0  0  0  0  0  0  0  0  0
   -3.4765   -1.1358    2.0758 H   0  0  0  0  0  0  0  0  0  0  0  0
   -4.3644   -1.1469    0.5341 H   0  0  0  0  0  0  0  0  0  0  0  0
   -2.6026   -1.3802    0.5586 H   0  0  0  0  0  0  0  0  0  0  0  0
   -0.5842    0.6937    0.7399 H   0  0  0  0  0  0  0  0  0  0  0  0
  1  2  1  0  0  0  0
  2  3  1  0  0  0  0
  3  4  1  0  0  0  0
  3  5  4  0  0  0  0
  5  6  2  0  0  0  0
  5  7  1  0  0  0  0
  7  8  1  0  0  0  0
  8  9  4  0  0  0  0
  9 10  4  0  0  0  0
 10 11  4  0  0  0  0
 11 12  4  0  0  0  0
 12 13  1  0  0  0  0
 13 14  1  0  0  0  0
 13 15  1  0  0  0  0
 15 16  1  0  0  0  0
 15 17  1  0  0  0  0
  8 18  4  0  0  0  0
 12 18  4  0  0  0  0
  1 19  1  0  0  0  0
  1 20  1  0  0  0  0
  1 21  1  0  0  0  0
  2 22  1  0  0  0  0
  2 23  1  0  0  0  0
  4 24  1  0  0  0  0
  4 25  1  0  0  0  0
  4 26  1  0  0  0  0
  9 27  1  0  0  0  0
 10 28  1  0  0  0  0
 11 29  1  0  0  0  0
 13 30  1  0  0  0  0
 14 31  1  0  0  0  0
 14 32  1  0  0  0  0
 14 33  1  0  0  0  0
 16 34  1  0  0  0  0
 16 35  1  0  0  0  0
 16 36  1  0  0  0  0
 17 37  1  0  0  0  0
 17 38  1  0  0  0  0
 17 39  1  0  0  0  0
 18 40  1  0  0  0  0
M  END
