 xtb: 6.7.1pre (5071a88)
          08312622083D

 92147  0     0  0            999 V2000
    1.7373    2.2575    9.8852 O   0  0  0  0  0  0  0  0  0  0  0  0
    1.0952    1.7027    8.9402 C   0  0  0  0  0  0  0  0  0  0  0  0
    1.0574    0.2694    8.8541 C   0  0  0  0  0  0  0  0  0  0  0  0
    1.7477   -0.3572    9.8481 O   0  0  0  0  0  0  0  0  0  0  0  0
    0.3519   -0.3776    7.8680 C   0  0  0  0  0  0  0  0  0  0  0  0
    0.1844   -1.8035    7.7038 C   0  0  0  0  0  0  0  0  0  0  0  0
    1.0018   -2.7362    8.3594 C   0  0  0  0  0  0  0  0  0  0  0  0
    0.8058   -4.0889    8.1718 C   0  0  0  0  0  0  0  0  0  0  0  0
   -0.2024   -4.5483    7.3394 C   0  0  0  0  0  0  0  0  0  0  0  0
   -0.4473   -5.8913    7.1237 O   0  0  0  0  0  0  0  0  0  0  0  0
   -1.0274   -3.6304    6.6679 C   0  0  0  0  0  0  0  0  0  0  0  0
   -2.0119   -4.0703    5.8236 O   0  0  0  0  0  0  0  0  0  0  0  0
   -0.8273   -2.2790    6.8486 C   0  0  0  0  0  0  0  0  0  0  0  0
   -0.3185    0.3575    6.9086 O   0  0  0  0  0  0  0  0  0  0  0  0
   -0.3041    1.7052    6.9327 C   0  0  0  0  0  0  0  0  0  0  0  0
   -0.9937    2.3731    5.9273 C   0  0  0  0  0  0  0  0  0  0  0  0
   -1.0036    3.7620    5.9242 C   0  0  0  0  0  0  0  0  0  0  0  0
   -1.6788    4.3858    4.9179 O   0  0  0  0  0  0  0  0  0  0  0  0
   -0.3413    4.4934    6.9029 C   0  0  0  0  0  0  0  0  0  0  0  0
    0.3501    3.8345    7.9103 C   0  0  0  0  0  0  0  0  0  0  0  0
    0.9898    4.5288    8.8602 O   0  0  0  0  0  0  0  0  0  0  0  0
    0.3764    2.4234    7.9214 C   0  0  0  0  0  0  0  0  0  0  0  0
    2.0792    0.3914   10.3890 H   0  0  0  0  0  0  0  0  0  0  0  0
    1.7881   -2.3924    9.0091 H   0  0  0  0  0  0  0  0  0  0  0  0
    1.4439   -4.8012    8.6805 H   0  0  0  0  0  0  0  0  0  0  0  0
    0.1994   -6.4038    7.6086 H   0  0  0  0  0  0  0  0  0  0  0  0
   -1.9852   -5.0353    5.8413 H   0  0  0  0  0  0  0  0  0  0  0  0
   -1.4737   -1.5821    6.3256 H   0  0  0  0  0  0  0  0  0  0  0  0
   -1.5132    1.8195    5.1657 H   0  0  0  0  0  0  0  0  0  0  0  0
   -1.5968    5.3423    5.0114 H   0  0  0  0  0  0  0  0  0  0  0  0
   -0.3618    5.5731    6.8981 H   0  0  0  0  0  0  0  0  0  0  0  0
    1.4063    3.8438    9.4645 H   0  0  0  0  0  0  0  0  0  0  0  0
   -6.2698   -2.8937   -0.3003 B   0  0  0  0  0  0  0  0  0  0  0  0
   -3.8462   -3.4749    1.0353 B   0  0  0  0  0  0  0  0  0  0  0  0
   -1.0649   -4.2253    2.2086 B   0  0  0  0  0  0  0  0  0  0  0  0
    1.6833   -4.2323    1.6028 B   0  0  0  0  0  0  0  0  0  0  0  0
    2.9509   -3.6480    0.8731 B   0  0  0  0  0  0  0  0  0  0  0  0
    5.8356   -3.7880   -0.2859 B   0  0  0  0  0  0  0  0  0  0  0  0
   -4.6887   -2.3431   -0.2559 B   0  0  0  0  0  0  0  0  0  0  0  0
   -2.6273   -2.2383    1.1189 B   0  0  0  0  0  0  0  0  0  0  0  0
   -1.2655   -2.4554    2.0790 B   0  0  0  0  0  0  0  0  0  0  0  0
    0.2666   -3.1643    1.5538 B   0  0  0  0  0  0  0  0  0  0  0  0
    3.0879   -2.0679    0.3341 B   0  0  0  0  0  0  0  0  0  0  0  0
    5.1676   -2.5015   -0.9796 B   0  0  0  0  0  0  0  0  0  0  0  0
   -4.2748   -1.0402   -1.1470 B   0  0  0  0  0  0  0  0  0  0  0  0
   -3.1583   -1.2763    0.0291 B   0  0  0  0  0  0  0  0  0  0  0  0
   -0.8485   -0.9692    2.4693 B   0  0  0  0  0  0  0  0  0  0  0  0
    0.4012   -1.5200    1.2285 B   0  0  0  0  0  0  0  0  0  0  0  0
    4.1826   -1.1972   -0.3596 B   0  0  0  0  0  0  0  0  0  0  0  0
    6.7478   -2.4125   -0.7244 B   0  0  0  0  0  0  0  0  0  0  0  0
   -4.8049   -0.6156   -2.6801 B   0  0  0  0  0  0  0  0  0  0  0  0
   -3.1296    0.1699   -0.6224 B   0  0  0  0  0  0  0  0  0  0  0  0
   -1.0721    0.5644    2.5404 B   0  0  0  0  0  0  0  0  0  0  0  0
   -0.0408   -0.0403    1.2818 B   0  0  0  0  0  0  0  0  0  0  0  0
    4.8151    0.3088   -0.3682 B   0  0  0  0  0  0  0  0  0  0  0  0
    5.7556   -0.9923   -0.9988 B   0  0  0  0  0  0  0  0  0  0  0  0
   -5.5111    0.9140   -2.8181 B   0  0  0  0  0  0  0  0  0  0  0  0
   -2.7922    1.6102   -0.2824 B   0  0  0  0  0  0  0  0  0  0  0  0
   -1.3567    2.0737    2.4017 B   0  0  0  0  0  0  0  0  0  0  0  0
    0.1296    1.5234    1.4914 B   0  0  0  0  0  0  0  0  0  0  0  0
    4.1844    1.6765    0.2886 B   0  0  0  0  0  0  0  0  0  0  0  0
    6.1481    0.5115   -1.5338 B   0  0  0  0  0  0  0  0  0  0  0  0
   -5.5789    1.8220   -1.3989 B   0  0  0  0  0  0  0  0  0  0  0  0
   -3.3131    2.9484    0.2095 B   0  0  0  0  0  0  0  0  0  0  0  0
   -1.7920    3.5634    2.1304 B   0  0  0  0  0  0  0  0  0  0  0  0
   -0.1282    3.1376    1.7623 B   0  0  0  0  0  0  0  0  0  0  0  0
    2.8956    2.2545    1.0083 B   0  0  0  0  0  0  0  0  0  0  0  0
    5.6241    1.7783   -0.6605 B   0  0  0  0  0  0  0  0  0  0  0  0
   -6.5036    2.9315   -0.8932 B   0  0  0  0  0  0  0  0  0  0  0  0
   -4.4921    3.9426    0.7650 B   0  0  0  0  0  0  0  0  0  0  0  0
   -1.8415    5.1631    1.6647 B   0  0  0  0  0  0  0  0  0  0  0  0
    1.1062    4.3615    1.7524 B   0  0  0  0  0  0  0  0  0  0  0  0
    2.5144    3.8915    1.2648 B   0  0  0  0  0  0  0  0  0  0  0  0
    5.2099    3.0878    0.0032 B   0  0  0  0  0  0  0  0  0  0  0  0
   -5.2669   -3.6904    0.4813 B   0  0  0  0  0  0  0  0  0  0  0  0
   -2.4963   -3.6931    1.8178 B   0  0  0  0  0  0  0  0  0  0  0  0
    0.3573   -4.7645    2.1196 B   0  0  0  0  0  0  0  0  0  0  0  0
    1.7077   -2.3994    1.0684 B   0  0  0  0  0  0  0  0  0  0  0  0
    4.2896   -3.4133    0.1246 B   0  0  0  0  0  0  0  0  0  0  0  0
   -5.0278    2.8962   -0.2322 B   0  0  0  0  0  0  0  0  0  0  0  0
   -3.0977    4.3473    1.2862 B   0  0  0  0  0  0  0  0  0  0  0  0
   -0.3544    4.8620    1.8629 B   0  0  0  0  0  0  0  0  0  0  0  0
    1.4055    2.5232    1.4331 B   0  0  0  0  0  0  0  0  0  0  0  0
    3.9635    3.5917    0.7345 B   0  0  0  0  0  0  0  0  0  0  0  0
   -4.4718    0.6036   -1.6262 B   0  0  0  0  0  0  0  0  0  0  0  0
   -7.2628   -2.5360   -0.8104 H   0  0  0  0  0  0  0  0  0  0  0  0
   -4.7470   -1.3474   -3.6004 H   0  0  0  0  0  0  0  0  0  0  0  0
   -5.9797    1.3139   -3.8193 H   0  0  0  0  0  0  0  0  0  0  0  0
   -7.4606    3.5961   -0.7860 H   0  0  0  0  0  0  0  0  0  0  0  0
    6.2711   -4.8794   -0.3182 H   0  0  0  0  0  0  0  0  0  0  0  0
    7.9114   -2.3782   -0.8666 H   0  0  0  0  0  0  0  0  0  0  0  0
    6.8251    0.6632   -2.4900 H   0  0  0  0  0  0  0  0  0  0  0  0
  1  2  4  0  0  0  0
  2  3  1  0  0  0  0
  3  4  1  0  0  0  0
  3  5  4  0  0  0  0
  5  6  1  0  0  0  0
  6  7  4  0  0  0  0
  7  8  4  0  0  0  0
  8  9  4  0  0  0  0
  9 10  1  0  0  0  0
  9 11  4  0  0  0  0
 11 12  1  0  0  0  0
  6 13  4  0  0  0  0
 11 13  4  0  0  0  0
  5 14  1  0  0  0  0
 14 15  1  0  0  0  0
 15 16  4  0  0  0  0
 16 17  4  0  0  0  0
 17 18  1  0  0  0  0
 17 19  4  0  0  0  0
 19 20  4  0  0  0  0
 20 21  1  0  0  0  0
  2 22  1  0  0  0  0
 15 22  4  0  0  0  0
 20 22  4  0  0  0  0
  4 23  1  0  0  0  0
  7 24  1  0  0  0  0
  8 25  1  0  0  0  0
 10 26  1  0  0  0  0
 12 27  1  0  0  0  0
 13 28  1  0  0  0  0
 16 29  1  0  0  0  0
 18 30  1  0  0  0  0
 19 31  1  0  0  0  0
 21 32  1  0  0  0  0
 36 37  1  0  0  0  0
 33 39  1  0  0  0  0
 34 39  1  0  0  0  0
 34 40  1  0  0  0  0
 35 41  1  0  0  0  0
 40 41  1  0  0  0  0
 35 42  1  0  0  0  0
 36 42  1  0  0  0  0
 41 42  1  0  0  0  0
 37 43  1  0  0  0  0
 38 44  1  0  0  0  0
 39 45  1  0  0  0  0
 39 46  1  0  0  0  0
 40 46  1  0  0  0  0
 45 46  1  0  0  0  0
 41 47  1  0  0  0  0
 42 48  1  0  0  0  0
 47 48  1  0  0  0  0
 43 49  1  0  0  0  0
 44 49  1  0  0  0  0
 38 50  1  0  0  0  0
 44 50  1  0  0  0  0
 45 51  1  0  0  0  0
 45 52  1  0  0  0  0
 46 52  1  0  0  0  0
 47 53  1  0  0  0  0
 47 54  1  0  0  0  0
 48 54  1  0  0  0  0
 53 54  1  0  0  0  0
 49 55  1  0  0  0  0
 44 56  1  0  0  0  0
 49 56  1  0  0  0  0
 50 56  1  0  0  0  0
 55 56  1  0  0  0  0
 51 57  1  0  0  0  0
 52 58  1  0  0  0  0
 53 59  1  0  0  0  0
 53 60  1  0  0  0  0
 54 60  1  0  0  0  0
 59 60  1  0  0  0  0
 55 61  1  0  0  0  0
 55 62  1  0  0  0  0
 56 62  1  0  0  0  0
 57 63  1  0  0  0  0
 58 64  2  0  0  0  0
 59 65  1  0  0  0  0
 59 66  1  0  0  0  0
 60 66  1  0  0  0  0
 65 66  1  0  0  0  0
 61 67  1  0  0  0  0
 55 68  1  0  0  0  0
 61 68  1  0  0  0  0
 62 68  1  0  0  0  0
 63 69  1  0  0  0  0
 64 70  1  0  0  0  0
 65 71  1  0  0  0  0
 66 72  1  0  0  0  0
 67 73  1  0  0  0  0
 72 73  1  0  0  0  0
 61 74  1  0  0  0  0
 68 74  1  0  0  0  0
 33 75  2  0  0  0  0
 34 75  1  0  0  0  0
 39 75  1  0  0  0  0
 34 76  1  0  0  0  0
 35 76  1  0  0  0  0
 40 76  1  0  0  0  0
 41 76  1  0  0  0  0
 35 77  1  0  0  0  0
 36 77  1  0  0  0  0
 42 77  1  0  0  0  0
 36 78  1  0  0  0  0
 37 78  1  0  0  0  0
 42 78  1  0  0  0  0
 43 78  1  0  0  0  0
 48 78  1  0  0  0  0
 37 79  1  0  0  0  0
 38 79  1  0  0  0  0
 43 79  1  0  0  0  0
 44 79  1  0  0  0  0
 63 80  1  0  0  0  0
 64 80  1  0  0  0  0
 69 80  1  0  0  0  0
 70 80  1  0  0  0  0
 64 81  1  0  0  0  0
 65 81  1  0  0  0  0
 70 81  1  0  0  0  0
 71 81  1  0  0  0  0
 65 82  1  0  0  0  0
 66 82  1  0  0  0  0
 71 82  1  0  0  0  0
 72 82  1  0  0  0  0
 60 83  1  0  0  0  0
 66 83  1  0  0  0  0
 67 83  1  0  0  0  0
 72 83  1  0  0  0  0
 73 83  1  0  0  0  0
 61 84  1  0  0  0  0
 67 84  1  0  0  0  0
 73 84  1  0  0  0  0
 74 84  1  0  0  0  0
 45 85  1  0  0  0  0
 51 85  1  0  0  0  0
 52 85  1  0  0  0  0
 57 85  1  0  0  0  0
 63 85  1  0  0  0  0
 33 86  1  0  0  0  0
 51 87  1  0  0  0  0
 57 88  1  0  0  0  0
 69 89  1  0  0  0  0
 38 90  1  0  0  0  0
 50 91  1  0  0  0  0
 62 92  1  0  0  0  0
M  END
