 xtb: 6.7.1pre (5071a88)
          08312620223D

 92123  0     0  0            999 V2000
   -2.2004    1.5745    6.1320 O   0  0  0  0  0  0  0  0  0  0  0  0
   -1.6755    0.9864    5.1887 C   0  0  0  0  0  0  0  0  0  0  0  0
   -0.2009    0.9377    5.0595 C   0  0  0  0  0  0  0  0  0  0  0  0
    0.5383    1.5642    6.0461 O   0  0  0  0  0  0  0  0  0  0  0  0
    0.3304    0.2810    4.0117 C   0  0  0  0  0  0  0  0  0  0  0  0
    1.7866    0.1526    3.7892 C   0  0  0  0  0  0  0  0  0  0  0  0
    2.6468    1.2639    3.8674 C   0  0  0  0  0  0  0  0  0  0  0  0
    4.0211    1.1339    3.6339 C   0  0  0  0  0  0  0  0  0  0  0  0
    4.5365   -0.1139    3.3123 C   0  0  0  0  0  0  0  0  0  0  0  0
    5.8685   -0.3075    3.0731 O   0  0  0  0  0  0  0  0  0  0  0  0
    3.6944   -1.2179    3.2214 C   0  0  0  0  0  0  0  0  0  0  0  0
    4.2091   -2.4419    2.9003 O   0  0  0  0  0  0  0  0  0  0  0  0
    2.3302   -1.0967    3.4523 C   0  0  0  0  0  0  0  0  0  0  0  0
   -0.4238   -0.3671    3.0402 O   0  0  0  0  0  0  0  0  0  0  0  0
   -1.7918   -0.3340    3.1295 C   0  0  0  0  0  0  0  0  0  0  0  0
   -2.5096   -0.9882    2.1290 C   0  0  0  0  0  0  0  0  0  0  0  0
   -3.9014   -0.9871    2.1705 C   0  0  0  0  0  0  0  0  0  0  0  0
   -4.5644   -1.6382    1.1728 O   0  0  0  0  0  0  0  0  0  0  0  0
   -4.5892   -0.3431    3.1957 C   0  0  0  0  0  0  0  0  0  0  0  0
   -3.8668    0.3084    4.1925 C   0  0  0  0  0  0  0  0  0  0  0  0
   -4.5923    0.9247    5.1760 O   0  0  0  0  0  0  0  0  0  0  0  0
   -2.4684    0.3130    4.1591 C   0  0  0  0  0  0  0  0  0  0  0  0
   -0.1216    1.9137    6.6812 H   0  0  0  0  0  0  0  0  0  0  0  0
    2.2492    2.2469    4.1133 H   0  0  0  0  0  0  0  0  0  0  0  0
    4.6573    2.0097    3.7077 H   0  0  0  0  0  0  0  0  0  0  0  0
    6.3220    0.5458    3.1847 H   0  0  0  0  0  0  0  0  0  0  0  0
    5.1674   -2.2821    2.7879 H   0  0  0  0  0  0  0  0  0  0  0  0
    1.7006   -1.9789    3.3733 H   0  0  0  0  0  0  0  0  0  0  0  0
   -1.9902   -1.4967    1.3210 H   0  0  0  0  0  0  0  0  0  0  0  0
   -5.5212   -1.5630    1.3281 H   0  0  0  0  0  0  0  0  0  0  0  0
   -5.6740   -0.3378    3.2353 H   0  0  0  0  0  0  0  0  0  0  0  0
   -3.9667    1.3374    5.8124 H   0  0  0  0  0  0  0  0  0  0  0  0
   -7.5000   -4.5000    0.0000 B   0  0  0  0  0  0  0  0  0  0  0  0
   -4.5000   -4.5000    0.0000 B   0  0  0  0  0  0  0  0  0  0  0  0
   -1.5000   -4.5000    0.0000 B   0  0  0  0  0  0  0  0  0  0  0  0
    1.5000   -4.5000    0.0000 B   0  0  0  0  0  0  0  0  0  0  0  0
    4.5000   -4.5000    0.0000 B   0  0  0  0  0  0  0  0  0  0  0  0
    7.5000   -4.5000    0.0000 B   0  0  0  0  0  0  0  0  0  0  0  0
   -7.5000   -3.0000    0.0000 B   0  0  0  0  0  0  0  0  0  0  0  0
   -4.5000   -3.0000    0.0000 B   0  0  0  0  0  0  0  0  0  0  0  0
   -1.5000   -3.0000    0.0000 B   0  0  0  0  0  0  0  0  0  0  0  0
    1.5000   -3.0000    0.0000 B   0  0  0  0  0  0  0  0  0  0  0  0
    4.5000   -3.0000    0.0000 B   0  0  0  0  0  0  0  0  0  0  0  0
    7.5000   -3.0000    0.0000 B   0  0  0  0  0  0  0  0  0  0  0  0
   -7.5000   -1.5000    0.0000 B   0  0  0  0  0  0  0  0  0  0  0  0
   -4.5000   -1.5000    0.0000 B   0  0  0  0  0  0  0  0  0  0  0  0
   -1.5000   -1.5000    0.0000 B   0  0  0  0  0  0  0  0  0  0  0  0
    1.5000   -1.5000    0.0000 B   0  0  0  0  0  0  0  0  0  0  0  0
    4.5000   -1.5000    0.0000 B   0  0  0  0  0  0  0  0  0  0  0  0
    7.5000   -1.5000    0.0000 B   0  0  0  0  0  0  0  0  0  0  0  0
   -7.5000    0.0000    0.0000 B   0  0  0  0  0  0  0  0  0  0  0  0
   -4.5000    0.0000    0.0000 B   0  0  0  0  0  0  0  0  0  0  0  0
   -1.5000    0.0000    0.0000 B   0  0  0  0  0  0  0  0  0  0  0  0
    1.5000    0.0000    0.0000 B   0  0  0  0  0  0  0  0  0  0  0  0
    4.5000    0.0000    0.0000 B   0  0  0  0  0  0  0  0  0  0  0  0
    7.5000    0.0000    0.0000 B   0  0  0  0  0  0  0  0  0  0  0  0
   -7.5000    1.5000    0.0000 B   0  0  0  0  0  0  0  0  0  0  0  0
   -4.5000    1.5000    0.0000 B   0  0  0  0  0  0  0  0  0  0  0  0
   -1.5000    1.5000    0.0000 B   0  0  0  0  0  0  0  0  0  0  0  0
    1.5000    1.5000    0.0000 B   0  0  0  0  0  0  0  0  0  0  0  0
    4.5000    1.5000    0.0000 B   0  0  0  0  0  0  0  0  0  0  0  0
    7.5000    1.5000    0.0000 B   0  0  0  0  0  0  0  0  0  0  0  0
   -7.5000    3.0000    0.0000 B   0  0  0  0  0  0  0  0  0  0  0  0
   -4.5000    3.0000    0.0000 B   0  0  0  0  0  0  0  0  0  0  0  0
   -1.5000    3.0000    0.0000 B   0  0  0  0  0  0  0  0  0  0  0  0
    1.5000    3.0000    0.0000 B   0  0  0  0  0  0  0  0  0  0  0  0
    4.5000    3.0000    0.0000 B   0  0  0  0  0  0  0  0  0  0  0  0
    7.5000    3.0000    0.0000 B   0  0  0  0  0  0  0  0  0  0  0  0
   -7.5000    4.5000    0.0000 B   0  0  0  0  0  0  0  0  0  0  0  0
   -4.5000    4.5000    0.0000 B   0  0  0  0  0  0  0  0  0  0  0  0
   -1.5000    4.5000    0.0000 B   0  0  0  0  0  0  0  0  0  0  0  0
    1.5000    4.5000    0.0000 B   0  0  0  0  0  0  0  0  0  0  0  0
    4.5000    4.5000    0.0000 B   0  0  0  0  0  0  0  0  0  0  0  0
    7.5000    4.5000    0.0000 B   0  0  0  0  0  0  0  0  0  0  0  0
   -6.0000   -3.7500    0.0000 B   0  0  0  0  0  0  0  0  0  0  0  0
   -3.0000   -3.7500    0.0000 B   0  0  0  0  0  0  0  0  0  0  0  0
    0.0000   -3.7500    0.0000 B   0  0  0  0  0  0  0  0  0  0  0  0
    3.0000   -3.7500    0.0000 B   0  0  0  0  0  0  0  0  0  0  0  0
    6.0000   -3.7500    0.0000 B   0  0  0  0  0  0  0  0  0  0  0  0
   -6.0000    3.7500    0.0000 B   0  0  0  0  0  0  0  0  0  0  0  0
   -3.0000    3.7500    0.0000 B   0  0  0  0  0  0  0  0  0  0  0  0
    0.0000    3.7500    0.0000 B   0  0  0  0  0  0  0  0  0  0  0  0
    3.0000    3.7500    0.0000 B   0  0  0  0  0  0  0  0  0  0  0  0
    6.0000    3.7500    0.0000 B   0  0  0  0  0  0  0  0  0  0  0  0
   -6.0000    0.0000    0.0000 B   0  0  0  0  0  0  0  0  0  0  0  0
   -8.6000   -4.5000    0.0000 H   0  0  0  0  0  0  0  0  0  0  0  0
   -8.6000   -1.5000    0.0000 H   0  0  0  0  0  0  0  0  0  0  0  0
   -8.6000    1.5000    0.0000 H   0  0  0  0  0  0  0  0  0  0  0  0
   -8.6000    4.5000    0.0000 H   0  0  0  0  0  0  0  0  0  0  0  0
    8.6000   -4.5000    0.0000 H   0  0  0  0  0  0  0  0  0  0  0  0
    8.6000   -1.5000    0.0000 H   0  0  0  0  0  0  0  0  0  0  0  0
    8.6000    1.5000    0.0000 H   0  0  0  0  0  0  0  0  0  0  0  0
  1  2  4  0  0  0  0
  2  3  1  0  0  0  0
  3  4  1  0  0  0  0
  3  5  2  0  0  0  0
  5  6  1  0  0  0  0
  6  7  4  0  0  0  0
  7  8  4  0  0  0  0
  8  9  4  0  0  0  0
  9 10  1  0  0  0  0
  9 11  4  0  0  0  0
 11 12  1  0  0  0  0
  6 13  4  0  0  0  0
 11 13  4  0  0  0  0
  5 14  1  0  0  0  0
 14 15  1  0  0  0  0
 15 16  4  0  0  0  0
 16 17  4  0  0  0  0
 17 18  1  0  0  0  0
 17 19  4  0  0  0  0
 19 20  4  0  0  0  0
 20 21  1  0  0  0  0
  2 22  1  0  0  0  0
 15 22  4  0  0  0  0
 20 22  4  0  0  0  0
  4 23  1  0  0  0  0
  7 24  1  0  0  0  0
  8 25  1  0  0  0  0
 10 26  1  0  0  0  0
 12 27  1  0  0  0  0
 13 28  1  0  0  0  0
 16 29  1  0  0  0  0
 18 30  1  0  0  0  0
 19 31  1  0  0  0  0
 21 32  1  0  0  0  0
 33 39  1  0  0  0  0
 34 40  1  0  0  0  0
 35 41  1  0  0  0  0
 36 42  1  0  0  0  0
 37 43  1  0  0  0  0
 38 44  1  0  0  0  0
 39 45  1  0  0  0  0
 18 46  1  0  0  0  0
 40 46  1  0  0  0  0
 41 47  1  0  0  0  0
 42 48  1  0  0  0  0
 43 49  1  0  0  0  0
 44 50  1  0  0  0  0
 45 51  1  0  0  0  0
 46 52  1  0  0  0  0
 47 53  2  0  0  0  0
 48 54  2  0  0  0  0
 49 55  2  0  0  0  0
 50 56  1  0  0  0  0
 51 57  1  0  0  0  0
 52 58  2  0  0  0  0
 53 59  2  0  0  0  0
 54 60  2  0  0  0  0
 55 61  2  0  0  0  0
 56 62  2  0  0  0  0
 57 63  1  0  0  0  0
 58 64  1  0  0  0  0
 59 65  1  0  0  0  0
 60 66  1  0  0  0  0
 61 67  1  0  0  0  0
 62 68  1  0  0  0  0
 63 69  1  0  0  0  0
 64 70  1  0  0  0  0
 65 71  1  0  0  0  0
 66 72  1  0  0  0  0
 67 73  1  0  0  0  0
 68 74  2  0  0  0  0
 33 75  1  0  0  0  0
 34 75  1  0  0  0  0
 39 75  1  0  0  0  0
 40 75  1  0  0  0  0
 34 76  1  0  0  0  0
 35 76  1  0  0  0  0
 40 76  1  0  0  0  0
 41 76  1  0  0  0  0
 35 77  1  0  0  0  0
 36 77  1  0  0  0  0
 41 77  1  0  0  0  0
 42 77  1  0  0  0  0
 36 78  1  0  0  0  0
 37 78  1  0  0  0  0
 42 78  1  0  0  0  0
 43 78  1  0  0  0  0
 37 79  1  0  0  0  0
 38 79  1  0  0  0  0
 43 79  1  0  0  0  0
 44 79  1  0  0  0  0
 63 80  1  0  0  0  0
 64 80  1  0  0  0  0
 69 80  1  0  0  0  0
 70 80  1  0  0  0  0
 64 81  1  0  0  0  0
 65 81  1  0  0  0  0
 70 81  1  0  0  0  0
 71 81  1  0  0  0  0
 65 82  1  0  0  0  0
 66 82  1  0  0  0  0
 71 82  1  0  0  0  0
 72 82  1  0  0  0  0
 66 83  1  0  0  0  0
 67 83  1  0  0  0  0
 72 83  1  0  0  0  0
 73 83  1  0  0  0  0
 67 84  1  0  0  0  0
 68 84  1  0  0  0  0
 73 84  1  0  0  0  0
 74 84  1  0  0  0  0
 45 85  1  0  0  0  0
 51 85  1  0  0  0  0
 52 85  1  0  0  0  0
 57 85  1  0  0  0  0
 58 85  1  0  0  0  0
 33 86  1  0  0  0  0
 45 87  1  0  0  0  0
 57 88  1  0  0  0  0
 69 89  1  0  0  0  0
 38 90  1  0  0  0  0
 50 91  1  0  0  0  0
 62 92  1  0  0  0  0
M  END
