 xtb: 6.7.1pre (5071a88)
          09012616373D

 92134  0     0  0            999 V2000
    1.8436    2.2386    9.7612 O   0  0  0  0  0  0  0  0  0  0  0  0
    1.1448    1.7139    8.8497 C   0  0  0  0  0  0  0  0  0  0  0  0
    1.1239    0.2776    8.7205 C   0  0  0  0  0  0  0  0  0  0  0  0
    1.8998   -0.3680    9.6308 O   0  0  0  0  0  0  0  0  0  0  0  0
    0.3547   -0.3506    7.7725 C   0  0  0  0  0  0  0  0  0  0  0  0
    0.2005   -1.7790    7.5881 C   0  0  0  0  0  0  0  0  0  0  0  0
    1.1007   -2.7036    8.1345 C   0  0  0  0  0  0  0  0  0  0  0  0
    0.9103   -4.0567    7.9404 C   0  0  0  0  0  0  0  0  0  0  0  0
   -0.1722   -4.5201    7.2079 C   0  0  0  0  0  0  0  0  0  0  0  0
   -0.4193   -5.8589    6.9925 O   0  0  0  0  0  0  0  0  0  0  0  0
   -1.0788   -3.6079    6.6451 C   0  0  0  0  0  0  0  0  0  0  0  0
   -2.1423   -4.0493    5.9157 O   0  0  0  0  0  0  0  0  0  0  0  0
   -0.8845   -2.2553    6.8335 C   0  0  0  0  0  0  0  0  0  0  0  0
   -0.4004    0.3933    6.8957 O   0  0  0  0  0  0  0  0  0  0  0  0
   -0.3892    1.7395    6.9428 C   0  0  0  0  0  0  0  0  0  0  0  0
   -1.1404    2.4206    5.9929 C   0  0  0  0  0  0  0  0  0  0  0  0
   -1.1588    3.8099    6.0033 C   0  0  0  0  0  0  0  0  0  0  0  0
   -1.8945    4.4397    5.0440 O   0  0  0  0  0  0  0  0  0  0  0  0
   -0.4461    4.5268    6.9573 C   0  0  0  0  0  0  0  0  0  0  0  0
    0.3090    3.8580    7.9105 C   0  0  0  0  0  0  0  0  0  0  0  0
    0.9984    4.5432    8.8306 O   0  0  0  0  0  0  0  0  0  0  0  0
    0.3490    2.4454    7.9020 C   0  0  0  0  0  0  0  0  0  0  0  0
    2.2642    0.3661   10.1756 H   0  0  0  0  0  0  0  0  0  0  0  0
    1.9462   -2.3569    8.7053 H   0  0  0  0  0  0  0  0  0  0  0  0
    1.6104   -4.7658    8.3656 H   0  0  0  0  0  0  0  0  0  0  0  0
    0.2722   -6.3779    7.4197 H   0  0  0  0  0  0  0  0  0  0  0  0
   -2.1048   -5.0156    5.9082 H   0  0  0  0  0  0  0  0  0  0  0  0
   -1.5968   -1.5669    6.4063 H   0  0  0  0  0  0  0  0  0  0  0  0
   -1.7031    1.8751    5.2558 H   0  0  0  0  0  0  0  0  0  0  0  0
   -1.8244    5.3942    5.1648 H   0  0  0  0  0  0  0  0  0  0  0  0
   -0.4647    5.6067    6.9745 H   0  0  0  0  0  0  0  0  0  0  0  0
    1.4684    3.8697    9.3929 H   0  0  0  0  0  0  0  0  0  0  0  0
   -6.8463   -4.6759    0.4201 B   0  0  0  0  0  0  0  0  0  0  0  0
   -5.1144   -2.2048    0.3764 B   0  0  0  0  0  0  0  0  0  0  0  0
   -3.5924   -2.1782    0.2414 B   0  0  0  0  0  0  0  0  0  0  0  0
    0.9982   -2.8609    0.2063 B   0  0  0  0  0  0  0  0  0  0  0  0
    2.4754   -3.0102   -0.1391 B   0  0  0  0  0  0  0  0  0  0  0  0
    5.2579   -3.8034   -0.7266 B   0  0  0  0  0  0  0  0  0  0  0  0
    6.1869   -4.7666   -1.4280 B   0  0  0  0  0  0  0  0  0  0  0  0
   -6.4102   -3.1644    0.3557 B   0  0  0  0  0  0  0  0  0  0  0  0
   -6.7672   -1.6507    0.3053 B   0  0  0  0  0  0  0  0  0  0  0  0
   -2.0632   -2.3200    0.3722 B   0  0  0  0  0  0  0  0  0  0  0  0
   -0.4955   -2.4658    0.3371 B   0  0  0  0  0  0  0  0  0  0  0  0
    4.0142   -2.8696   -0.2076 B   0  0  0  0  0  0  0  0  0  0  0  0
    5.7510   -2.2979   -0.2567 B   0  0  0  0  0  0  0  0  0  0  0  0
    6.7940   -3.2193   -1.1206 B   0  0  0  0  0  0  0  0  0  0  0  0
   -7.6477   -0.2685    0.3344 B   0  0  0  0  0  0  0  0  0  0  0  0
   -6.0338   -0.1621    0.1408 B   0  0  0  0  0  0  0  0  0  0  0  0
   -4.4249   -0.5451    0.2088 B   0  0  0  0  0  0  0  0  0  0  0  0
   -2.7239   -0.6589    0.2608 B   0  0  0  0  0  0  0  0  0  0  0  0
   -1.0458   -0.8959    0.6166 B   0  0  0  0  0  0  0  0  0  0  0  0
    0.5190   -1.1725    0.7555 B   0  0  0  0  0  0  0  0  0  0  0  0
    3.1073   -1.4493   -0.0861 B   0  0  0  0  0  0  0  0  0  0  0  0
    4.6828   -1.1583    0.3812 B   0  0  0  0  0  0  0  0  0  0  0  0
    6.2554   -0.7997    0.2816 B   0  0  0  0  0  0  0  0  0  0  0  0
    7.6896   -0.3651    0.9971 B   0  0  0  0  0  0  0  0  0  0  0  0
   -6.8964    1.1931    0.1168 B   0  0  0  0  0  0  0  0  0  0  0  0
   -3.4075    0.7789    0.0275 B   0  0  0  0  0  0  0  0  0  0  0  0
   -1.6576    0.5532    0.0895 B   0  0  0  0  0  0  0  0  0  0  0  0
    1.8468   -0.3720    0.3141 B   0  0  0  0  0  0  0  0  0  0  0  0
    3.5818   -0.1397    0.7951 B   0  0  0  0  0  0  0  0  0  0  0  0
    6.9632    0.5972   -0.1122 B   0  0  0  0  0  0  0  0  0  0  0  0
    8.3322    1.0325    0.5358 B   0  0  0  0  0  0  0  0  0  0  0  0
   -7.5633    2.7902    0.3374 B   0  0  0  0  0  0  0  0  0  0  0  0
   -6.1686    2.4983   -0.3731 B   0  0  0  0  0  0  0  0  0  0  0  0
   -3.5898    2.3175   -0.3180 B   0  0  0  0  0  0  0  0  0  0  0  0
   -0.8955    1.8484   -0.4181 B   0  0  0  0  0  0  0  0  0  0  0  0
    1.6120    1.0604   -0.3863 B   0  0  0  0  0  0  0  0  0  0  0  0
    2.9930    1.3147    0.5727 B   0  0  0  0  0  0  0  0  0  0  0  0
    6.3461    1.8588   -0.9025 B   0  0  0  0  0  0  0  0  0  0  0  0
   -6.5248    4.0310   -0.2164 B   0  0  0  0  0  0  0  0  0  0  0  0
   -4.8934    3.4541   -0.5140 B   0  0  0  0  0  0  0  0  0  0  0  0
   -3.4363    3.8726   -0.6702 B   0  0  0  0  0  0  0  0  0  0  0  0
   -2.0267    3.2518   -0.6865 B   0  0  0  0  0  0  0  0  0  0  0  0
   -0.4962    3.3335   -0.8368 B   0  0  0  0  0  0  0  0  0  0  0  0
    0.7138    2.3900   -0.6957 B   0  0  0  0  0  0  0  0  0  0  0  0
    2.3334    2.5205   -0.4045 B   0  0  0  0  0  0  0  0  0  0  0  0
    3.8142    2.6332   -0.0240 B   0  0  0  0  0  0  0  0  0  0  0  0
    5.3703    2.8578   -0.0974 B   0  0  0  0  0  0  0  0  0  0  0  0
    6.0646    4.0503    0.7102 B   0  0  0  0  0  0  0  0  0  0  0  0
    6.2056    5.1356    0.2697 H   0  0  0  0  0  0  0  0  0  0  0  0
    8.2790   -1.1162    1.6742 H   0  0  0  0  0  0  0  0  0  0  0  0
    6.5659    1.9886   -2.0583 H   0  0  0  0  0  0  0  0  0  0  0  0
   -6.8857   -5.3761   -0.5355 H   0  0  0  0  0  0  0  0  0  0  0  0
   -6.7820    5.1687   -0.3180 H   0  0  0  0  0  0  0  0  0  0  0  0
    9.2147    1.7872    0.6276 H   0  0  0  0  0  0  0  0  0  0  0  0
   -8.8192   -0.3350    0.3619 H   0  0  0  0  0  0  0  0  0  0  0  0
    6.5810   -5.7492   -1.9215 H   0  0  0  0  0  0  0  0  0  0  0  0
   -8.6127    2.9736    0.8213 H   0  0  0  0  0  0  0  0  0  0  0  0
    7.8841   -2.9033   -1.4277 H   0  0  0  0  0  0  0  0  0  0  0  0
    6.4659    3.9110    1.8109 H   0  0  0  0  0  0  0  0  0  0  0  0
   -7.2256   -5.2144    1.4041 H   0  0  0  0  0  0  0  0  0  0  0  0
  1  2  4  0  0  0  0
  2  3  1  0  0  0  0
  3  4  1  0  0  0  0
  3  5  4  0  0  0  0
  5  6  1  0  0  0  0
  6  7  4  0  0  0  0
  7  8  4  0  0  0  0
  8  9  4  0  0  0  0
  9 10  1  0  0  0  0
  9 11  4  0  0  0  0
 11 12  1  0  0  0  0
  6 13  4  0  0  0  0
 11 13  4  0  0  0  0
  5 14  1  0  0  0  0
 14 15  1  0  0  0  0
 15 16  4  0  0  0  0
 16 17  4  0  0  0  0
 17 18  1  0  0  0  0
 17 19  4  0  0  0  0
 19 20  4  0  0  0  0
 20 21  1  0  0  0  0
  2 22  1  0  0  0  0
 15 22  4  0  0  0  0
 20 22  4  0  0  0  0
  4 23  1  0  0  0  0
  7 24  1  0  0  0  0
  8 25  1  0  0  0  0
 10 26  1  0  0  0  0
 12 27  1  0  0  0  0
 13 28  1  0  0  0  0
 16 29  1  0  0  0  0
 18 30  1  0  0  0  0
 19 31  1  0  0  0  0
 21 32  1  0  0  0  0
 34 35  1  0  0  0  0
 36 37  2  0  0  0  0
 38 39  2  0  0  0  0
 33 40  1  0  0  0  0
 34 40  1  0  0  0  0
 34 41  1  0  0  0  0
 40 41  1  0  0  0  0
 35 42  1  0  0  0  0
 36 43  1  0  0  0  0
 42 43  1  0  0  0  0
 37 44  1  0  0  0  0
 38 44  1  0  0  0  0
 38 45  1  0  0  0  0
 44 45  1  0  0  0  0
 38 46  1  0  0  0  0
 39 46  1  0  0  0  0
 45 46  1  0  0  0  0
 41 47  1  0  0  0  0
 41 48  1  0  0  0  0
 47 48  1  0  0  0  0
 34 49  1  0  0  0  0
 35 49  1  0  0  0  0
 48 49  1  0  0  0  0
 35 50  1  0  0  0  0
 42 50  1  0  0  0  0
 49 50  1  0  0  0  0
 42 51  1  0  0  0  0
 43 51  1  0  0  0  0
 50 51  1  0  0  0  0
 36 52  1  0  0  0  0
 43 52  1  0  0  0  0
 51 52  1  0  0  0  0
 37 53  1  0  0  0  0
 44 53  1  0  0  0  0
 44 54  1  0  0  0  0
 45 54  1  0  0  0  0
 53 54  1  0  0  0  0
 45 55  1  0  0  0  0
 54 55  1  0  0  0  0
 55 56  1  0  0  0  0
 47 57  1  0  0  0  0
 48 57  1  0  0  0  0
 49 58  1  0  0  0  0
 50 58  1  0  0  0  0
 50 59  1  0  0  0  0
 51 59  1  0  0  0  0
 58 59  1  0  0  0  0
 52 60  1  0  0  0  0
 53 60  1  0  0  0  0
 53 61  1  0  0  0  0
 54 61  1  0  0  0  0
 60 61  1  0  0  0  0
 55 62  1  0  0  0  0
 56 62  1  0  0  0  0
 56 63  1  0  0  0  0
 62 63  1  0  0  0  0
 57 64  1  0  0  0  0
 57 65  1  0  0  0  0
 64 65  1  0  0  0  0
 58 66  1  0  0  0  0
 59 67  1  0  0  0  0
 60 68  1  0  0  0  0
 61 69  1  0  0  0  0
 68 69  1  0  0  0  0
 62 70  1  0  0  0  0
 64 71  1  0  0  0  0
 65 71  1  0  0  0  0
 65 72  1  0  0  0  0
 66 72  1  0  0  0  0
 71 72  1  0  0  0  0
 66 73  1  0  0  0  0
 72 73  1  0  0  0  0
 66 74  1  0  0  0  0
 67 74  1  0  0  0  0
 73 74  1  0  0  0  0
 67 75  1  0  0  0  0
 74 75  1  0  0  0  0
 67 76  1  0  0  0  0
 68 76  1  0  0  0  0
 75 76  1  0  0  0  0
 68 77  1  0  0  0  0
 69 77  1  0  0  0  0
 76 77  1  0  0  0  0
 69 78  1  0  0  0  0
 77 78  1  0  0  0  0
 70 79  1  0  0  0  0
 78 79  1  0  0  0  0
 79 80  1  0  0  0  0
 80 81  1  0  0  0  0
 56 82  1  0  0  0  0
 70 83  1  0  0  0  0
 33 84  1  0  0  0  0
 71 85  1  0  0  0  0
 63 86  1  0  0  0  0
 47 87  1  0  0  0  0
 39 88  1  0  0  0  0
 64 89  1  0  0  0  0
 46 90  1  0  0  0  0
 80 91  1  0  0  0  0
 33 92  1  0  0  0  0
M  END
