 xtb: 6.7.1pre (5071a88)
          09012620373D

 87122  0     0  0            999 V2000
   -0.1405    2.2949   10.5040 O   0  0  0  0  0  0  0  0  0  0  0  0
   -0.1402    1.9291    9.2956 C   0  0  0  0  0  0  0  0  0  0  0  0
   -0.0436    0.5245    8.9880 C   0  0  0  0  0  0  0  0  0  0  0  0
    0.0392   -0.2737   10.0847 O   0  0  0  0  0  0  0  0  0  0  0  0
   -0.0384    0.0683    7.6919 C   0  0  0  0  0  0  0  0  0  0  0  0
    0.0785   -1.3009    7.2414 C   0  0  0  0  0  0  0  0  0  0  0  0
    0.3293   -2.3643    8.1148 C   0  0  0  0  0  0  0  0  0  0  0  0
    0.4682   -3.6497    7.6304 C   0  0  0  0  0  0  0  0  0  0  0  0
    0.3577   -3.9126    6.2744 C   0  0  0  0  0  0  0  0  0  0  0  0
    0.4929   -5.1714    5.7283 O   0  0  0  0  0  0  0  0  0  0  0  0
    0.0939   -2.8602    5.3885 C   0  0  0  0  0  0  0  0  0  0  0  0
   -0.0322   -3.0942    4.0536 O   0  0  0  0  0  0  0  0  0  0  0  0
   -0.0393   -1.5763    5.8702 C   0  0  0  0  0  0  0  0  0  0  0  0
   -0.1412    0.9638    6.6512 O   0  0  0  0  0  0  0  0  0  0  0  0
   -0.2201    2.2913    6.8754 C   0  0  0  0  0  0  0  0  0  0  0  0
   -0.2946    3.1240    5.7691 C   0  0  0  0  0  0  0  0  0  0  0  0
   -0.3693    4.4995    5.9594 C   0  0  0  0  0  0  0  0  0  0  0  0
   -0.4306    5.2819    4.8524 O   0  0  0  0  0  0  0  0  0  0  0  0
   -0.3723    5.0471    7.2380 C   0  0  0  0  0  0  0  0  0  0  0  0
   -0.3006    4.2218    8.3514 C   0  0  0  0  0  0  0  0  0  0  0  0
   -0.3023    4.7449    9.5826 O   0  0  0  0  0  0  0  0  0  0  0  0
   -0.2219    2.8227    8.1725 C   0  0  0  0  0  0  0  0  0  0  0  0
   -0.0006    0.3647   10.8314 H   0  0  0  0  0  0  0  0  0  0  0  0
    0.4206   -2.1803    9.1697 H   0  0  0  0  0  0  0  0  0  0  0  0
    0.6690   -4.4640    8.3129 H   0  0  0  0  0  0  0  0  0  0  0  0
    0.6850   -5.7990    6.4317 H   0  0  0  0  0  0  0  0  0  0  0  0
    0.1882   -4.0178    3.8747 H   0  0  0  0  0  0  0  0  0  0  0  0
   -0.2411   -0.7839    5.1708 H   0  0  0  0  0  0  0  0  0  0  0  0
   -0.2990    2.7215    4.7700 H   0  0  0  0  0  0  0  0  0  0  0  0
   -0.5117    6.2068    5.1120 H   0  0  0  0  0  0  0  0  0  0  0  0
   -0.4306    6.1152    7.3857 H   0  0  0  0  0  0  0  0  0  0  0  0
   -0.2456    3.9801   10.2176 H   0  0  0  0  0  0  0  0  0  0  0  0
   -4.7874   -2.5733    0.0027 B   0  0  0  0  0  0  0  0  0  0  0  0
   -4.1120   -1.2818   -0.6240 B   0  0  0  0  0  0  0  0  0  0  0  0
   -3.2703   -0.2094   -1.5626 B   0  0  0  0  0  0  0  0  0  0  0  0
   -3.1861   -2.7612    0.0063 B   0  0  0  0  0  0  0  0  0  0  0  0
   -2.2667    0.0624   -0.4117 B   0  0  0  0  0  0  0  0  0  0  0  0
   -4.0512    0.3022    0.0583 B   0  0  0  0  0  0  0  0  0  0  0  0
   -5.0740    1.5356    0.2348 B   0  0  0  0  0  0  0  0  0  0  0  0
   -4.4451    3.0259    0.0954 B   0  0  0  0  0  0  0  0  0  0  0  0
   -2.8160    0.3841    1.1278 B   0  0  0  0  0  0  0  0  0  0  0  0
   -3.5765    3.6986    1.2932 B   0  0  0  0  0  0  0  0  0  0  0  0
   -2.0621   -3.9575    0.1784 B   0  0  0  0  0  0  0  0  0  0  0  0
   -1.6728   -2.4326    0.4505 B   0  0  0  0  0  0  0  0  0  0  0  0
   -1.4848   -0.8251    0.7234 B   0  0  0  0  0  0  0  0  0  0  0  0
   -0.5059   -3.5339    0.6970 B   0  0  0  0  0  0  0  0  0  0  0  0
   -0.2575   -0.4411    1.7688 B   0  0  0  0  0  0  0  0  0  0  0  0
   -1.6873    0.0631    2.3138 B   0  0  0  0  0  0  0  0  0  0  0  0
   -2.0107    1.6331    1.8563 B   0  0  0  0  0  0  0  0  0  0  0  0
   -2.1020    3.0906    1.2461 B   0  0  0  0  0  0  0  0  0  0  0  0
   -0.5717    1.1527    2.6125 B   0  0  0  0  0  0  0  0  0  0  0  0
   -0.8210    3.9792    0.6760 B   0  0  0  0  0  0  0  0  0  0  0  0
    0.8537   -4.4638    0.9764 B   0  0  0  0  0  0  0  0  0  0  0  0
    0.8861   -2.8984    1.2891 B   0  0  0  0  0  0  0  0  0  0  0  0
    1.1345   -1.3641    1.6402 B   0  0  0  0  0  0  0  0  0  0  0  0
    2.2036   -3.8337    1.7186 B   0  0  0  0  0  0  0  0  0  0  0  0
    2.5841   -0.6258    1.6991 B   0  0  0  0  0  0  0  0  0  0  0  0
    1.2638    0.2369    1.9550 B   0  0  0  0  0  0  0  0  0  0  0  0
    0.8116    1.9105    2.2688 B   0  0  0  0  0  0  0  0  0  0  0  0
    0.2885    3.0306    1.1983 B   0  0  0  0  0  0  0  0  0  0  0  0
    2.2029    1.4726    1.4744 B   0  0  0  0  0  0  0  0  0  0  0  0
    0.9706    2.1136    0.0023 B   0  0  0  0  0  0  0  0  0  0  0  0
    3.2645   -4.3487    2.8987 B   0  0  0  0  0  0  0  0  0  0  0  0
    3.6402   -3.0815    1.9283 B   0  0  0  0  0  0  0  0  0  0  0  0
    3.9791   -1.5732    1.5049 B   0  0  0  0  0  0  0  0  0  0  0  0
    4.5205   -3.4065    3.2047 B   0  0  0  0  0  0  0  0  0  0  0  0
    5.2999   -0.7542    0.8456 B   0  0  0  0  0  0  0  0  0  0  0  0
    4.0876    0.0633    1.5185 B   0  0  0  0  0  0  0  0  0  0  0  0
    3.7747    1.7430    0.9580 B   0  0  0  0  0  0  0  0  0  0  0  0
    2.5727    2.1459   -0.1164 B   0  0  0  0  0  0  0  0  0  0  0  0
    5.2776    1.0023    0.9450 B   0  0  0  0  0  0  0  0  0  0  0  0
    4.0492    2.2474   -0.5527 B   0  0  0  0  0  0  0  0  0  0  0  0
   -5.6603   -3.0741    0.6024 H   0  0  0  0  0  0  0  0  0  0  0  0
   -5.1825   -1.9594   -1.0748 H   0  0  0  0  0  0  0  0  0  0  0  0
   -3.5301    0.0659   -2.6774 H   0  0  0  0  0  0  0  0  0  0  0  0
   -6.2146    1.3612    0.4996 H   0  0  0  0  0  0  0  0  0  0  0  0
   -4.5952    3.6159   -0.9155 H   0  0  0  0  0  0  0  0  0  0  0  0
   -4.0445    4.4646    2.0519 H   0  0  0  0  0  0  0  0  0  0  0  0
   -2.3218   -5.0781   -0.0432 H   0  0  0  0  0  0  0  0  0  0  0  0
   -0.8538    4.9344   -0.0062 H   0  0  0  0  0  0  0  0  0  0  0  0
    0.9096   -5.5881    0.6560 H   0  0  0  0  0  0  0  0  0  0  0  0
    0.3361    1.4041   -0.6976 H   0  0  0  0  0  0  0  0  0  0  0  0
    3.0188   -5.3205    3.5021 H   0  0  0  0  0  0  0  0  0  0  0  0
    5.4253   -3.1451    3.8912 H   0  0  0  0  0  0  0  0  0  0  0  0
    6.2929   -1.2603    0.4953 H   0  0  0  0  0  0  0  0  0  0  0  0
    6.3081    1.5455    1.0846 H   0  0  0  0  0  0  0  0  0  0  0  0
    4.8388    2.5072   -1.3726 H   0  0  0  0  0  0  0  0  0  0  0  0
  1  2  4  0  0  0  0
  2  3  1  0  0  0  0
  3  4  1  0  0  0  0
  3  5  4  0  0  0  0
  5  6  1  0  0  0  0
  6  7  4  0  0  0  0
  7  8  4  0  0  0  0
  8  9  4  0  0  0  0
  9 10  1  0  0  0  0
  9 11  4  0  0  0  0
 11 12  1  0  0  0  0
  6 13  4  0  0  0  0
 11 13  4  0  0  0  0
  5 14  1  0  0  0  0
 14 15  1  0  0  0  0
 15 16  4  0  0  0  0
 16 17  4  0  0  0  0
 17 18  1  0  0  0  0
 17 19  4  0  0  0  0
 19 20  4  0  0  0  0
 20 21  1  0  0  0  0
  2 22  1  0  0  0  0
 15 22  4  0  0  0  0
 20 22  4  0  0  0  0
  4 23  1  0  0  0  0
  7 24  1  0  0  0  0
  8 25  1  0  0  0  0
 10 26  1  0  0  0  0
 12 27  1  0  0  0  0
 13 28  1  0  0  0  0
 16 29  1  0  0  0  0
 18 30  1  0  0  0  0
 19 31  1  0  0  0  0
 21 32  1  0  0  0  0
 33 34  1  0  0  0  0
 34 35  1  0  0  0  0
 33 36  1  0  0  0  0
 34 36  1  0  0  0  0
 35 37  1  0  0  0  0
 34 38  1  0  0  0  0
 35 38  1  0  0  0  0
 37 38  1  0  0  0  0
 38 39  1  0  0  0  0
 39 40  1  0  0  0  0
 37 41  1  0  0  0  0
 38 41  1  0  0  0  0
 40 42  1  0  0  0  0
 36 43  1  0  0  0  0
 36 44  1  0  0  0  0
 43 44  1  0  0  0  0
 37 45  1  0  0  0  0
 41 45  1  0  0  0  0
 44 45  1  0  0  0  0
 43 46  1  0  0  0  0
 44 46  1  0  0  0  0
 45 47  1  0  0  0  0
 41 48  1  0  0  0  0
 45 48  1  0  0  0  0
 47 48  1  0  0  0  0
 41 49  1  0  0  0  0
 48 49  1  0  0  0  0
 42 50  1  0  0  0  0
 49 50  1  0  0  0  0
 47 51  1  0  0  0  0
 48 51  1  0  0  0  0
 49 51  1  0  0  0  0
 50 52  1  0  0  0  0
 46 53  1  0  0  0  0
 46 54  1  0  0  0  0
 53 54  1  0  0  0  0
 47 55  1  0  0  0  0
 54 55  1  0  0  0  0
 53 56  1  0  0  0  0
 54 56  1  0  0  0  0
 55 57  1  0  0  0  0
 47 58  1  0  0  0  0
 55 58  1  0  0  0  0
 57 58  1  0  0  0  0
 51 59  1  0  0  0  0
 58 59  1  0  0  0  0
 52 60  1  0  0  0  0
 59 60  1  0  0  0  0
 58 61  1  0  0  0  0
 59 61  1  0  0  0  0
 60 62  1  0  0  0  0
 56 63  1  0  0  0  0
 56 64  1  0  0  0  0
 63 64  1  0  0  0  0
 57 65  1  0  0  0  0
 64 65  1  0  0  0  0
 63 66  1  0  0  0  0
 64 66  1  0  0  0  0
 65 67  1  0  0  0  0
 57 68  1  0  0  0  0
 65 68  1  0  0  0  0
 67 68  1  0  0  0  0
 61 69  1  0  0  0  0
 68 69  1  0  0  0  0
 61 70  1  0  0  0  0
 62 70  1  0  0  0  0
 69 70  1  0  0  0  0
 67 71  1  0  0  0  0
 68 71  1  0  0  0  0
 69 71  1  0  0  0  0
 69 72  1  0  0  0  0
 70 72  1  0  0  0  0
 33 73  1  0  0  0  0
 33 74  1  0  0  0  0
 34 74  1  0  0  0  0
 35 75  1  0  0  0  0
 39 76  1  0  0  0  0
 40 77  1  0  0  0  0
 42 78  1  0  0  0  0
 43 79  1  0  0  0  0
 52 80  1  0  0  0  0
 53 81  1  0  0  0  0
 62 82  1  0  0  0  0
 63 83  1  0  0  0  0
 66 84  1  0  0  0  0
 67 85  1  0  0  0  0
 71 86  1  0  0  0  0
 72 87  1  0  0  0  0
M  END
