 xtb: 6.7.1pre (5071a88)
          09022615143D

 87124  0     0  0            999 V2000
   -2.0967    1.3321    9.7659 O   0  0  0  0  0  0  0  0  0  0  0  0
   -1.6138    0.9477    8.6655 C   0  0  0  0  0  0  0  0  0  0  0  0
   -0.1828    0.9104    8.4964 C   0  0  0  0  0  0  0  0  0  0  0  0
    0.5170    1.3152    9.5874 O   0  0  0  0  0  0  0  0  0  0  0  0
    0.3932    0.5262    7.3089 C   0  0  0  0  0  0  0  0  0  0  0  0
    1.7992    0.5030    6.9734 C   0  0  0  0  0  0  0  0  0  0  0  0
    2.8130    0.7077    7.9145 C   0  0  0  0  0  0  0  0  0  0  0  0
    4.1399    0.6584    7.5343 C   0  0  0  0  0  0  0  0  0  0  0  0
    4.4914    0.4134    6.2168 C   0  0  0  0  0  0  0  0  0  0  0  0
    5.7954    0.3495    5.7719 O   0  0  0  0  0  0  0  0  0  0  0  0
    3.4862    0.2190    5.2618 C   0  0  0  0  0  0  0  0  0  0  0  0
    3.8077   -0.0009    3.9554 O   0  0  0  0  0  0  0  0  0  0  0  0
    2.1633    0.2606    5.6394 C   0  0  0  0  0  0  0  0  0  0  0  0
   -0.4010    0.1129    6.2666 O   0  0  0  0  0  0  0  0  0  0  0  0
   -1.7442    0.1182    6.3687 C   0  0  0  0  0  0  0  0  0  0  0  0
   -2.4671   -0.3127    5.2689 C   0  0  0  0  0  0  0  0  0  0  0  0
   -3.8553   -0.2797    5.3073 C   0  0  0  0  0  0  0  0  0  0  0  0
   -4.5047   -0.7103    4.1985 O   0  0  0  0  0  0  0  0  0  0  0  0
   -4.5273    0.1658    6.4396 C   0  0  0  0  0  0  0  0  0  0  0  0
   -3.8118    0.5660    7.5604 C   0  0  0  0  0  0  0  0  0  0  0  0
   -4.4484    0.9728    8.6628 O   0  0  0  0  0  0  0  0  0  0  0  0
   -2.3988    0.5432    7.5298 C   0  0  0  0  0  0  0  0  0  0  0  0
   -0.1834    1.5366   10.2391 H   0  0  0  0  0  0  0  0  0  0  0  0
    2.5584    0.8995    8.9412 H   0  0  0  0  0  0  0  0  0  0  0  0
    4.9174    0.8118    8.2704 H   0  0  0  0  0  0  0  0  0  0  0  0
    6.3892    0.4837    6.5170 H   0  0  0  0  0  0  0  0  0  0  0  0
    4.7652   -0.1079    3.8889 H   0  0  0  0  0  0  0  0  0  0  0  0
    1.4057    0.1073    4.8915 H   0  0  0  0  0  0  0  0  0  0  0  0
   -1.9631   -0.6539    4.3818 H   0  0  0  0  0  0  0  0  0  0  0  0
   -5.4458   -0.5121    4.2566 H   0  0  0  0  0  0  0  0  0  0  0  0
   -5.6054    0.2005    6.4714 H   0  0  0  0  0  0  0  0  0  0  0  0
   -3.7435    1.2008    9.3305 H   0  0  0  0  0  0  0  0  0  0  0  0
   -4.7429   -3.0648    0.8978 B   0  0  0  0  0  0  0  0  0  0  0  0
   -4.4285   -1.7301    0.1012 B   0  0  0  0  0  0  0  0  0  0  0  0
   -4.2109   -0.5222   -1.0297 B   0  0  0  0  0  0  0  0  0  0  0  0
   -3.2364   -3.0411    0.3288 B   0  0  0  0  0  0  0  0  0  0  0  0
   -2.8490   -0.1551   -0.3700 B   0  0  0  0  0  0  0  0  0  0  0  0
   -4.3142   -0.0621    0.7014 B   0  0  0  0  0  0  0  0  0  0  0  0
   -5.1786    0.9793    1.5613 B   0  0  0  0  0  0  0  0  0  0  0  0
   -4.7651    2.5513    1.7786 B   0  0  0  0  0  0  0  0  0  0  0  0
   -2.7930    0.0855    1.2770 B   0  0  0  0  0  0  0  0  0  0  0  0
   -3.5212    2.8623    2.7854 B   0  0  0  0  0  0  0  0  0  0  0  0
   -1.9756   -4.1214    0.3995 B   0  0  0  0  0  0  0  0  0  0  0  0
   -1.6964   -2.5824    0.1199 B   0  0  0  0  0  0  0  0  0  0  0  0
   -1.5694   -0.9495    0.2953 B   0  0  0  0  0  0  0  0  0  0  0  0
   -0.3934   -3.5039    0.3864 B   0  0  0  0  0  0  0  0  0  0  0  0
   -0.1520   -0.4477    0.9177 B   0  0  0  0  0  0  0  0  0  0  0  0
   -1.3974   -0.3415    2.0069 B   0  0  0  0  0  0  0  0  0  0  0  0
   -1.8490    1.2561    1.9653 B   0  0  0  0  0  0  0  0  0  0  0  0
   -2.1105    2.8167    2.0313 B   0  0  0  0  0  0  0  0  0  0  0  0
   -0.2670    0.7093    2.3000 B   0  0  0  0  0  0  0  0  0  0  0  0
   -1.0115    3.9742    1.6600 B   0  0  0  0  0  0  0  0  0  0  0  0
    1.0222   -4.3341    0.7699 B   0  0  0  0  0  0  0  0  0  0  0  0
    1.0876   -2.7529    0.5519 B   0  0  0  0  0  0  0  0  0  0  0  0
    1.3105   -1.1678    0.6423 B   0  0  0  0  0  0  0  0  0  0  0  0
    2.3512   -3.5032    1.3078 B   0  0  0  0  0  0  0  0  0  0  0  0
    2.6557   -0.3263    0.9120 B   0  0  0  0  0  0  0  0  0  0  0  0
    1.2472    0.2845    1.4857 B   0  0  0  0  0  0  0  0  0  0  0  0
    1.0144    1.7696    2.2484 B   0  0  0  0  0  0  0  0  0  0  0  0
    0.3137    3.1329    1.7782 B   0  0  0  0  0  0  0  0  0  0  0  0
    2.3594    1.5031    1.2505 B   0  0  0  0  0  0  0  0  0  0  0  0
    0.9601    2.7009    0.2921 B   0  0  0  0  0  0  0  0  0  0  0  0
    3.3983   -3.8506    2.5752 B   0  0  0  0  0  0  0  0  0  0  0  0
    3.7392   -2.6585    1.5147 B   0  0  0  0  0  0  0  0  0  0  0  0
    4.1197   -1.1620    1.0521 B   0  0  0  0  0  0  0  0  0  0  0  0
    4.6222   -2.8374    2.8117 B   0  0  0  0  0  0  0  0  0  0  0  0
    5.4262   -0.2427    0.6004 B   0  0  0  0  0  0  0  0  0  0  0  0
    4.0830    0.5092    1.0940 B   0  0  0  0  0  0  0  0  0  0  0  0
    3.8465    2.2882    1.0400 B   0  0  0  0  0  0  0  0  0  0  0  0
    2.5485    2.8965    0.1708 B   0  0  0  0  0  0  0  0  0  0  0  0
    5.3179    1.5210    0.8756 B   0  0  0  0  0  0  0  0  0  0  0  0
    3.9635    3.5005    0.0102 B   0  0  0  0  0  0  0  0  0  0  0  0
   -5.2906   -3.6939    1.7179 H   0  0  0  0  0  0  0  0  0  0  0  0
   -5.5632   -2.4479    0.1030 H   0  0  0  0  0  0  0  0  0  0  0  0
   -4.9169   -0.3272   -1.9520 H   0  0  0  0  0  0  0  0  0  0  0  0
   -6.1197    0.6009    2.1808 H   0  0  0  0  0  0  0  0  0  0  0  0
   -5.3916    3.4059    1.2614 H   0  0  0  0  0  0  0  0  0  0  0  0
   -3.7061    2.9664    3.9438 H   0  0  0  0  0  0  0  0  0  0  0  0
   -2.1376   -5.2792    0.4351 H   0  0  0  0  0  0  0  0  0  0  0  0
   -1.2196    5.0651    1.2724 H   0  0  0  0  0  0  0  0  0  0  0  0
    1.0367   -5.5024    0.6989 H   0  0  0  0  0  0  0  0  0  0  0  0
    0.2927    2.2776   -0.5882 H   0  0  0  0  0  0  0  0  0  0  0  0
    3.1761   -4.7542    3.2830 H   0  0  0  0  0  0  0  0  0  0  0  0
    5.5137   -2.5223    3.4920 H   0  0  0  0  0  0  0  0  0  0  0  0
    6.5087   -0.5893    0.3212 H   0  0  0  0  0  0  0  0  0  0  0  0
    6.3657    2.0272    0.9983 H   0  0  0  0  0  0  0  0  0  0  0  0
    4.7147    4.2595   -0.4580 H   0  0  0  0  0  0  0  0  0  0  0  0
  1  2  4  0  0  0  0
  2  3  1  0  0  0  0
  3  4  1  0  0  0  0
  3  5  4  0  0  0  0
  5  6  1  0  0  0  0
  6  7  4  0  0  0  0
  7  8  4  0  0  0  0
  8  9  4  0  0  0  0
  9 10  1  0  0  0  0
  9 11  4  0  0  0  0
 11 12  1  0  0  0  0
  6 13  4  0  0  0  0
 11 13  4  0  0  0  0
  5 14  1  0  0  0  0
 14 15  1  0  0  0  0
 15 16  4  0  0  0  0
 16 17  4  0  0  0  0
 17 18  1  0  0  0  0
 17 19  4  0  0  0  0
 19 20  4  0  0  0  0
 20 21  1  0  0  0  0
  2 22  1  0  0  0  0
 15 22  4  0  0  0  0
 20 22  4  0  0  0  0
  4 23  1  0  0  0  0
  7 24  1  0  0  0  0
  8 25  1  0  0  0  0
 10 26  1  0  0  0  0
 12 27  1  0  0  0  0
 13 28  1  0  0  0  0
 16 29  1  0  0  0  0
 18 30  1  0  0  0  0
 19 31  1  0  0  0  0
 21 32  1  0  0  0  0
 33 34  1  0  0  0  0
 34 35  1  0  0  0  0
 33 36  1  0  0  0  0
 34 36  1  0  0  0  0
 35 37  1  0  0  0  0
 34 38  1  0  0  0  0
 35 38  1  0  0  0  0
 37 38  1  0  0  0  0
 38 39  1  0  0  0  0
 39 40  1  0  0  0  0
 37 41  1  0  0  0  0
 38 41  1  0  0  0  0
 40 42  1  0  0  0  0
 36 43  1  0  0  0  0
 36 44  1  0  0  0  0
 43 44  1  0  0  0  0
 37 45  1  0  0  0  0
 41 45  1  0  0  0  0
 44 45  1  0  0  0  0
 43 46  1  0  0  0  0
 44 46  1  0  0  0  0
 45 47  1  0  0  0  0
 41 48  1  0  0  0  0
 45 48  1  0  0  0  0
 47 48  1  0  0  0  0
 41 49  1  0  0  0  0
 48 49  1  0  0  0  0
 42 50  1  0  0  0  0
 49 50  1  0  0  0  0
 47 51  1  0  0  0  0
 48 51  1  0  0  0  0
 49 51  1  0  0  0  0
 50 52  1  0  0  0  0
 46 53  1  0  0  0  0
 46 54  1  0  0  0  0
 53 54  1  0  0  0  0
 47 55  1  0  0  0  0
 54 55  1  0  0  0  0
 53 56  1  0  0  0  0
 54 56  1  0  0  0  0
 55 57  1  0  0  0  0
 47 58  1  0  0  0  0
 51 58  1  0  0  0  0
 55 58  1  0  0  0  0
 57 58  1  0  0  0  0
 51 59  1  0  0  0  0
 58 59  1  0  0  0  0
 52 60  1  0  0  0  0
 59 60  1  0  0  0  0
 57 61  1  0  0  0  0
 58 61  1  0  0  0  0
 59 61  1  0  0  0  0
 60 62  1  0  0  0  0
 56 63  1  0  0  0  0
 56 64  1  0  0  0  0
 63 64  1  0  0  0  0
 57 65  1  0  0  0  0
 64 65  1  0  0  0  0
 63 66  1  0  0  0  0
 64 66  1  0  0  0  0
 65 67  1  0  0  0  0
 57 68  1  0  0  0  0
 65 68  1  0  0  0  0
 67 68  1  0  0  0  0
 61 69  1  0  0  0  0
 68 69  1  0  0  0  0
 61 70  1  0  0  0  0
 62 70  1  0  0  0  0
 69 70  1  0  0  0  0
 67 71  1  0  0  0  0
 68 71  1  0  0  0  0
 69 71  1  0  0  0  0
 69 72  1  0  0  0  0
 70 72  1  0  0  0  0
 33 73  1  0  0  0  0
 33 74  1  0  0  0  0
 34 74  1  0  0  0  0
 35 75  1  0  0  0  0
 39 76  1  0  0  0  0
 40 77  1  0  0  0  0
 42 78  1  0  0  0  0
 43 79  1  0  0  0  0
 52 80  1  0  0  0  0
 53 81  1  0  0  0  0
 62 82  1  0  0  0  0
 63 83  1  0  0  0  0
 66 84  1  0  0  0  0
 67 85  1  0  0  0  0
 71 86  1  0  0  0  0
 72 87  1  0  0  0  0
M  END
