 xtb: 6.7.1pre (5071a88)
          08312622063D

 99154  0     0  0            999 V2000
    0.2536   -6.2420    7.0275 C   0  0  0  0  0  0  0  0  0  0  0  0
   -0.3106   -5.0429    7.5941 N   0  0  0  0  0  0  0  0  0  0  0  0
   -1.5131   -5.1587    8.3819 C   0  0  0  0  0  0  0  0  0  0  0  0
    0.0547   -3.8185    7.0841 C   0  0  0  0  0  0  0  0  0  0  0  0
    1.0951   -3.6966    6.1556 C   0  0  0  0  0  0  0  0  0  0  0  0
    1.4691   -2.4603    5.6688 C   0  0  0  0  0  0  0  0  0  0  0  0
    0.8483   -1.2862    6.0784 C   0  0  0  0  0  0  0  0  0  0  0  0
    1.2613   -0.0816    5.5458 N   0  0  0  0  0  0  0  0  0  0  0  0
    0.7745    1.1639    5.8780 C   0  0  0  0  0  0  0  0  0  0  0  0
    1.3225    2.2905    5.2775 C   0  0  0  0  0  0  0  0  0  0  0  0
    0.8799    3.5661    5.5674 C   0  0  0  0  0  0  0  0  0  0  0  0
   -0.1555    3.7745    6.4848 C   0  0  0  0  0  0  0  0  0  0  0  0
   -0.5864    5.0409    6.8018 N   0  0  0  0  0  0  0  0  0  0  0  0
   -0.0558    6.1765    6.0915 C   0  0  0  0  0  0  0  0  0  0  0  0
   -1.7594    5.2184    7.6202 C   0  0  0  0  0  0  0  0  0  0  0  0
   -0.7155    2.6381    7.0878 C   0  0  0  0  0  0  0  0  0  0  0  0
   -0.2541    1.3711    6.7961 C   0  0  0  0  0  0  0  0  0  0  0  0
   -1.0533    0.0188    7.6422 S   0  0  0  0  0  0  0  0  0  0  0  0
   -0.1790   -1.4047    7.0137 C   0  0  0  0  0  0  0  0  0  0  0  0
   -0.5731   -2.6346    7.5000 C   0  0  0  0  0  0  0  0  0  0  0  0
    1.3217   -6.2971    7.2499 H   0  0  0  0  0  0  0  0  0  0  0  0
    0.1182   -6.2896    5.9436 H   0  0  0  0  0  0  0  0  0  0  0  0
   -0.2260   -7.1113    7.4687 H   0  0  0  0  0  0  0  0  0  0  0  0
   -2.3991   -4.8147    7.8348 H   0  0  0  0  0  0  0  0  0  0  0  0
   -1.4267   -4.5753    9.3030 H   0  0  0  0  0  0  0  0  0  0  0  0
   -1.6628   -6.1986    8.6597 H   0  0  0  0  0  0  0  0  0  0  0  0
    1.6202   -4.5646    5.8014 H   0  0  0  0  0  0  0  0  0  0  0  0
    2.2779   -2.3991    4.9543 H   0  0  0  0  0  0  0  0  0  0  0  0
    1.9555   -0.1240    4.8236 H   0  0  0  0  0  0  0  0  0  0  0  0
    2.1262    2.1589    4.5674 H   0  0  0  0  0  0  0  0  0  0  0  0
    1.3488    4.3963    5.0718 H   0  0  0  0  0  0  0  0  0  0  0  0
   -0.5617    7.0777    6.4238 H   0  0  0  0  0  0  0  0  0  0  0  0
    1.0106    6.2914    6.3007 H   0  0  0  0  0  0  0  0  0  0  0  0
   -0.1919    6.0860    5.0103 H   0  0  0  0  0  0  0  0  0  0  0  0
   -1.6091    4.7868    8.6148 H   0  0  0  0  0  0  0  0  0  0  0  0
   -1.9560    6.2800    7.7441 H   0  0  0  0  0  0  0  0  0  0  0  0
   -2.6446    4.7516    7.1716 H   0  0  0  0  0  0  0  0  0  0  0  0
   -1.5161    2.7283    7.8015 H   0  0  0  0  0  0  0  0  0  0  0  0
   -1.3790   -2.6567    8.2138 H   0  0  0  0  0  0  0  0  0  0  0  0
   -6.2291   -2.8494   -0.2988 B   0  0  0  0  0  0  0  0  0  0  0  0
   -3.8062   -3.4408    1.0246 B   0  0  0  0  0  0  0  0  0  0  0  0
   -1.0508   -4.1776    2.2562 B   0  0  0  0  0  0  0  0  0  0  0  0
    1.6970   -4.2336    1.6646 B   0  0  0  0  0  0  0  0  0  0  0  0
    2.9738   -3.6819    0.9202 B   0  0  0  0  0  0  0  0  0  0  0  0
    5.8707   -3.7839   -0.2215 B   0  0  0  0  0  0  0  0  0  0  0  0
   -4.6349   -2.3348   -0.2869 B   0  0  0  0  0  0  0  0  0  0  0  0
   -2.5684   -2.2196    1.0778 B   0  0  0  0  0  0  0  0  0  0  0  0
   -1.2431   -2.4010    2.0976 B   0  0  0  0  0  0  0  0  0  0  0  0
    0.2962   -3.1337    1.6136 B   0  0  0  0  0  0  0  0  0  0  0  0
    3.1155   -2.1083    0.3691 B   0  0  0  0  0  0  0  0  0  0  0  0
    5.1859   -2.5219   -0.9352 B   0  0  0  0  0  0  0  0  0  0  0  0
   -4.1988   -1.0622   -1.2115 B   0  0  0  0  0  0  0  0  0  0  0  0
   -3.0743   -1.2749   -0.0388 B   0  0  0  0  0  0  0  0  0  0  0  0
   -0.7951   -0.9382    2.5294 B   0  0  0  0  0  0  0  0  0  0  0  0
    0.4572   -1.4904    1.2920 B   0  0  0  0  0  0  0  0  0  0  0  0
    4.1905   -1.2203   -0.3318 B   0  0  0  0  0  0  0  0  0  0  0  0
    6.7647   -2.3944   -0.6981 B   0  0  0  0  0  0  0  0  0  0  0  0
   -4.7500   -0.6484   -2.7415 B   0  0  0  0  0  0  0  0  0  0  0  0
   -3.0263    0.1468   -0.7344 B   0  0  0  0  0  0  0  0  0  0  0  0
   -0.9567    0.6003    2.6501 B   0  0  0  0  0  0  0  0  0  0  0  0
    0.0374   -0.0017    1.3704 B   0  0  0  0  0  0  0  0  0  0  0  0
    4.7791    0.2827   -0.3189 B   0  0  0  0  0  0  0  0  0  0  0  0
    5.7631   -0.9995   -0.9718 B   0  0  0  0  0  0  0  0  0  0  0  0
   -5.4773    0.8727   -2.8542 B   0  0  0  0  0  0  0  0  0  0  0  0
   -2.6729    1.5954   -0.4299 B   0  0  0  0  0  0  0  0  0  0  0  0
   -1.2218    2.1190    2.5765 B   0  0  0  0  0  0  0  0  0  0  0  0
    0.2422    1.5566    1.5870 B   0  0  0  0  0  0  0  0  0  0  0  0
    4.2148    1.6336    0.3581 B   0  0  0  0  0  0  0  0  0  0  0  0
    6.0853    0.5030   -1.5502 B   0  0  0  0  0  0  0  0  0  0  0  0
   -5.4856    1.7912   -1.4411 B   0  0  0  0  0  0  0  0  0  0  0  0
   -3.1488    2.9368    0.0887 B   0  0  0  0  0  0  0  0  0  0  0  0
   -1.6353    3.5985    2.2616 B   0  0  0  0  0  0  0  0  0  0  0  0
   -0.0023    3.1641    1.9035 B   0  0  0  0  0  0  0  0  0  0  0  0
    2.9923    2.2980    1.1165 B   0  0  0  0  0  0  0  0  0  0  0  0
    5.6248    1.7493   -0.6094 B   0  0  0  0  0  0  0  0  0  0  0  0
   -6.3796    2.8824   -0.8501 B   0  0  0  0  0  0  0  0  0  0  0  0
   -4.3306    3.8518    0.7649 B   0  0  0  0  0  0  0  0  0  0  0  0
   -1.7179    5.1428    1.6453 B   0  0  0  0  0  0  0  0  0  0  0  0
    1.2165    4.4195    1.8882 B   0  0  0  0  0  0  0  0  0  0  0  0
    2.6102    3.9571    1.3476 B   0  0  0  0  0  0  0  0  0  0  0  0
    5.2322    3.0623    0.0684 B   0  0  0  0  0  0  0  0  0  0  0  0
   -5.2369   -3.6466    0.4926 B   0  0  0  0  0  0  0  0  0  0  0  0
   -2.4724   -3.6510    1.8303 B   0  0  0  0  0  0  0  0  0  0  0  0
    0.3675   -4.7307    2.2023 B   0  0  0  0  0  0  0  0  0  0  0  0
    1.7312   -2.4054    1.1034 B   0  0  0  0  0  0  0  0  0  0  0  0
    4.3128   -3.4473    0.1761 B   0  0  0  0  0  0  0  0  0  0  0  0
   -4.8673    2.8456   -0.2829 B   0  0  0  0  0  0  0  0  0  0  0  0
   -2.9242    4.2550    1.2500 B   0  0  0  0  0  0  0  0  0  0  0  0
   -0.2487    4.8967    2.0012 B   0  0  0  0  0  0  0  0  0  0  0  0
    1.5101    2.5569    1.5351 B   0  0  0  0  0  0  0  0  0  0  0  0
    4.0431    3.6874    0.8004 B   0  0  0  0  0  0  0  0  0  0  0  0
   -4.3806    0.5790   -1.7139 B   0  0  0  0  0  0  0  0  0  0  0  0
   -7.2218   -2.4930   -0.8177 H   0  0  0  0  0  0  0  0  0  0  0  0
   -4.6949   -1.3818   -3.6641 H   0  0  0  0  0  0  0  0  0  0  0  0
   -5.9935    1.2639   -3.8373 H   0  0  0  0  0  0  0  0  0  0  0  0
   -7.3373    3.5335   -0.6760 H   0  0  0  0  0  0  0  0  0  0  0  0
    6.3434   -4.8629   -0.2341 H   0  0  0  0  0  0  0  0  0  0  0  0
    7.9285   -2.3746   -0.8642 H   0  0  0  0  0  0  0  0  0  0  0  0
    6.5882    0.6700   -2.6108 H   0  0  0  0  0  0  0  0  0  0  0  0
  1  2  1  0  0  0  0
  2  3  1  0  0  0  0
  2  4  1  0  0  0  0
  4  5  4  0  0  0  0
  5  6  4  0  0  0  0
  6  7  4  0  0  0  0
  7  8  1  0  0  0  0
  8  9  1  0  0  0  0
  9 10  4  0  0  0  0
 10 11  4  0  0  0  0
 11 12  4  0  0  0  0
 12 13  1  0  0  0  0
 13 14  1  0  0  0  0
 13 15  1  0  0  0  0
 12 16  4  0  0  0  0
  9 17  4  0  0  0  0
 16 17  4  0  0  0  0
 17 18  1  0  0  0  0
  7 19  4  0  0  0  0
 18 19  1  0  0  0  0
  4 20  4  0  0  0  0
 19 20  4  0  0  0  0
  1 21  1  0  0  0  0
  1 22  1  0  0  0  0
  1 23  1  0  0  0  0
  3 24  1  0  0  0  0
  3 25  1  0  0  0  0
  3 26  1  0  0  0  0
  5 27  1  0  0  0  0
  6 28  1  0  0  0  0
  8 29  1  0  0  0  0
 10 30  1  0  0  0  0
 11 31  1  0  0  0  0
 14 32  1  0  0  0  0
 14 33  1  0  0  0  0
 14 34  1  0  0  0  0
 15 35  1  0  0  0  0
 15 36  1  0  0  0  0
 15 37  1  0  0  0  0
 16 38  1  0  0  0  0
 20 39  1  0  0  0  0
 43 44  1  0  0  0  0
 40 46  1  0  0  0  0
 41 46  1  0  0  0  0
 41 47  1  0  0  0  0
 42 48  1  0  0  0  0
 47 48  1  0  0  0  0
 42 49  1  0  0  0  0
 43 49  1  0  0  0  0
 48 49  1  0  0  0  0
 44 50  1  0  0  0  0
 45 51  1  0  0  0  0
 46 52  1  0  0  0  0
 46 53  1  0  0  0  0
 47 53  1  0  0  0  0
 52 53  1  0  0  0  0
 48 54  1  0  0  0  0
 49 55  1  0  0  0  0
 54 55  1  0  0  0  0
 50 56  1  0  0  0  0
 51 56  1  0  0  0  0
 45 57  1  0  0  0  0
 51 57  1  0  0  0  0
 52 58  1  0  0  0  0
 52 59  1  0  0  0  0
 53 59  1  0  0  0  0
 54 60  1  0  0  0  0
 54 61  1  0  0  0  0
 55 61  1  0  0  0  0
 60 61  1  0  0  0  0
 56 62  1  0  0  0  0
 51 63  1  0  0  0  0
 56 63  1  0  0  0  0
 57 63  1  0  0  0  0
 62 63  1  0  0  0  0
 58 64  1  0  0  0  0
 59 65  1  0  0  0  0
 60 66  1  0  0  0  0
 60 67  1  0  0  0  0
 61 67  1  0  0  0  0
 66 67  1  0  0  0  0
 62 68  1  0  0  0  0
 62 69  1  0  0  0  0
 63 69  1  0  0  0  0
 64 70  1  0  0  0  0
 65 71  2  0  0  0  0
 66 72  1  0  0  0  0
 66 73  1  0  0  0  0
 67 73  1  0  0  0  0
 72 73  1  0  0  0  0
 68 74  1  0  0  0  0
 62 75  1  0  0  0  0
 68 75  1  0  0  0  0
 69 75  1  0  0  0  0
 70 76  1  0  0  0  0
 71 77  1  0  0  0  0
 72 78  1  0  0  0  0
 73 79  1  0  0  0  0
 74 80  1  0  0  0  0
 79 80  1  0  0  0  0
 68 81  1  0  0  0  0
 75 81  1  0  0  0  0
 40 82  2  0  0  0  0
 41 82  1  0  0  0  0
 46 82  1  0  0  0  0
 41 83  1  0  0  0  0
 42 83  1  0  0  0  0
 47 83  1  0  0  0  0
 48 83  1  0  0  0  0
 42 84  1  0  0  0  0
 43 84  1  0  0  0  0
 49 84  1  0  0  0  0
 43 85  1  0  0  0  0
 44 85  1  0  0  0  0
 49 85  1  0  0  0  0
 50 85  1  0  0  0  0
 55 85  1  0  0  0  0
 44 86  1  0  0  0  0
 45 86  1  0  0  0  0
 50 86  1  0  0  0  0
 51 86  1  0  0  0  0
 70 87  1  0  0  0  0
 71 87  1  0  0  0  0
 76 87  1  0  0  0  0
 77 87  1  0  0  0  0
 71 88  1  0  0  0  0
 72 88  1  0  0  0  0
 77 88  1  0  0  0  0
 78 88  1  0  0  0  0
 72 89  1  0  0  0  0
 73 89  1  0  0  0  0
 78 89  1  0  0  0  0
 79 89  1  0  0  0  0
 67 90  1  0  0  0  0
 73 90  1  0  0  0  0
 74 90  1  0  0  0  0
 79 90  1  0  0  0  0
 80 90  1  0  0  0  0
 68 91  1  0  0  0  0
 74 91  1  0  0  0  0
 80 91  1  0  0  0  0
 81 91  1  0  0  0  0
 52 92  1  0  0  0  0
 58 92  1  0  0  0  0
 59 92  1  0  0  0  0
 64 92  1  0  0  0  0
 70 92  1  0  0  0  0
 40 93  1  0  0  0  0
 58 94  1  0  0  0  0
 64 95  1  0  0  0  0
 76 96  1  0  0  0  0
 45 97  1  0  0  0  0
 57 98  1  0  0  0  0
 69 99  1  0  0  0  0
M  END
