 xtb: 6.7.1pre (5071a88)
          09012616353D

 99141  0     0  0            999 V2000
    0.2342   -6.2219    6.6416 C   0  0  0  0  0  0  0  0  0  0  0  0
   -0.3242   -5.0242    7.2246 N   0  0  0  0  0  0  0  0  0  0  0  0
   -1.5759   -5.1412    7.9335 C   0  0  0  0  0  0  0  0  0  0  0  0
    0.0569   -3.7986    6.7162 C   0  0  0  0  0  0  0  0  0  0  0  0
    1.1593   -3.6710    5.8636 C   0  0  0  0  0  0  0  0  0  0  0  0
    1.5524   -2.4353    5.3868 C   0  0  0  0  0  0  0  0  0  0  0  0
    0.8686   -1.2690    5.7156 C   0  0  0  0  0  0  0  0  0  0  0  0
    1.2700   -0.0610    5.1643 N   0  0  0  0  0  0  0  0  0  0  0  0
    0.8580    1.1897    5.6001 C   0  0  0  0  0  0  0  0  0  0  0  0
    1.5320    2.3257    5.1626 C   0  0  0  0  0  0  0  0  0  0  0  0
    1.1275    3.5968    5.5225 C   0  0  0  0  0  0  0  0  0  0  0  0
    0.0249    3.7937    6.3614 C   0  0  0  0  0  0  0  0  0  0  0  0
   -0.3670    5.0589    6.7540 N   0  0  0  0  0  0  0  0  0  0  0  0
    0.1770    6.2009    6.0570 C   0  0  0  0  0  0  0  0  0  0  0  0
   -1.6206    5.2297    7.4481 C   0  0  0  0  0  0  0  0  0  0  0  0
   -0.6456    2.6483    6.8097 C   0  0  0  0  0  0  0  0  0  0  0  0
   -0.2411    1.3790    6.4352 C   0  0  0  0  0  0  0  0  0  0  0  0
   -1.2110    0.0162    7.0423 S   0  0  0  0  0  0  0  0  0  0  0  0
   -0.2297   -1.3896    6.5644 C   0  0  0  0  0  0  0  0  0  0  0  0
   -0.6237   -2.6218    7.0555 C   0  0  0  0  0  0  0  0  0  0  0  0
    1.3041   -6.2838    6.8560 H   0  0  0  0  0  0  0  0  0  0  0  0
    0.0900   -6.2575    5.5549 H   0  0  0  0  0  0  0  0  0  0  0  0
   -0.2429   -7.0974    7.0788 H   0  0  0  0  0  0  0  0  0  0  0  0
   -2.4348   -4.8516    7.3152 H   0  0  0  0  0  0  0  0  0  0  0  0
   -1.5618   -4.5159    8.8283 H   0  0  0  0  0  0  0  0  0  0  0  0
   -1.7139   -6.1723    8.2523 H   0  0  0  0  0  0  0  0  0  0  0  0
    1.7290   -4.5332    5.5639 H   0  0  0  0  0  0  0  0  0  0  0  0
    2.4096   -2.3651    4.7336 H   0  0  0  0  0  0  0  0  0  0  0  0
    2.1431   -0.0797    4.6541 H   0  0  0  0  0  0  0  0  0  0  0  0
    2.3898    2.2036    4.5179 H   0  0  0  0  0  0  0  0  0  0  0  0
    1.6906    4.4313    5.1429 H   0  0  0  0  0  0  0  0  0  0  0  0
   -0.3004    7.1103    6.4182 H   0  0  0  0  0  0  0  0  0  0  0  0
    1.2487    6.2874    6.2516 H   0  0  0  0  0  0  0  0  0  0  0  0
    0.0207    6.1358    4.9729 H   0  0  0  0  0  0  0  0  0  0  0  0
   -1.6016    4.6911    8.3974 H   0  0  0  0  0  0  0  0  0  0  0  0
   -1.7689    6.2848    7.6690 H   0  0  0  0  0  0  0  0  0  0  0  0
   -2.4764    4.8748    6.8598 H   0  0  0  0  0  0  0  0  0  0  0  0
   -1.5049    2.7209    7.4547 H   0  0  0  0  0  0  0  0  0  0  0  0
   -1.4836   -2.6417    7.7033 H   0  0  0  0  0  0  0  0  0  0  0  0
   -6.9201   -4.6422    0.6761 B   0  0  0  0  0  0  0  0  0  0  0  0
   -5.1213   -2.2292    0.4094 B   0  0  0  0  0  0  0  0  0  0  0  0
   -3.5988   -2.2128    0.2694 B   0  0  0  0  0  0  0  0  0  0  0  0
    0.9906   -2.8872    0.3677 B   0  0  0  0  0  0  0  0  0  0  0  0
    2.4692   -3.0350    0.0481 B   0  0  0  0  0  0  0  0  0  0  0  0
    5.2688   -3.7698   -0.5935 B   0  0  0  0  0  0  0  0  0  0  0  0
    6.2240   -4.6832   -1.3270 B   0  0  0  0  0  0  0  0  0  0  0  0
   -6.4335   -3.1603    0.4662 B   0  0  0  0  0  0  0  0  0  0  0  0
   -6.7681   -1.6460    0.3277 B   0  0  0  0  0  0  0  0  0  0  0  0
   -2.0720   -2.3450    0.4426 B   0  0  0  0  0  0  0  0  0  0  0  0
   -0.5013   -2.4826    0.4737 B   0  0  0  0  0  0  0  0  0  0  0  0
    4.0020   -2.8936   -0.0521 B   0  0  0  0  0  0  0  0  0  0  0  0
    5.7103   -2.2476   -0.1259 B   0  0  0  0  0  0  0  0  0  0  0  0
    6.7541   -3.1049   -1.0618 B   0  0  0  0  0  0  0  0  0  0  0  0
   -7.6439   -0.2559    0.2948 B   0  0  0  0  0  0  0  0  0  0  0  0
   -6.0307   -0.1741    0.0744 B   0  0  0  0  0  0  0  0  0  0  0  0
   -4.4311   -0.5706    0.1491 B   0  0  0  0  0  0  0  0  0  0  0  0
   -2.7362   -0.6961    0.2599 B   0  0  0  0  0  0  0  0  0  0  0  0
   -1.0791   -0.9163    0.7132 B   0  0  0  0  0  0  0  0  0  0  0  0
    0.4763   -1.1753    0.9406 B   0  0  0  0  0  0  0  0  0  0  0  0
    3.1008   -1.4916    0.2299 B   0  0  0  0  0  0  0  0  0  0  0  0
    4.6850   -1.1289    0.6161 B   0  0  0  0  0  0  0  0  0  0  0  0
    6.2424   -0.7678    0.4530 B   0  0  0  0  0  0  0  0  0  0  0  0
    7.7146   -0.3561    1.1170 B   0  0  0  0  0  0  0  0  0  0  0  0
   -6.8778    1.1949    0.0899 B   0  0  0  0  0  0  0  0  0  0  0  0
   -3.4096    0.7371   -0.0449 B   0  0  0  0  0  0  0  0  0  0  0  0
   -1.6549    0.5073    0.1034 B   0  0  0  0  0  0  0  0  0  0  0  0
    1.8358   -0.4006    0.5882 B   0  0  0  0  0  0  0  0  0  0  0  0
    3.5591   -0.1673    1.0902 B   0  0  0  0  0  0  0  0  0  0  0  0
    6.9451    0.6314    0.0572 B   0  0  0  0  0  0  0  0  0  0  0  0
    8.3441    1.0432    0.6551 B   0  0  0  0  0  0  0  0  0  0  0  0
   -7.4977    2.7951    0.3727 B   0  0  0  0  0  0  0  0  0  0  0  0
   -6.1412    2.4931   -0.4090 B   0  0  0  0  0  0  0  0  0  0  0  0
   -3.5710    2.2750   -0.4004 B   0  0  0  0  0  0  0  0  0  0  0  0
   -0.8813    1.7973   -0.3927 B   0  0  0  0  0  0  0  0  0  0  0  0
    1.6443    1.0242   -0.1516 B   0  0  0  0  0  0  0  0  0  0  0  0
    2.9880    1.2956    0.8549 B   0  0  0  0  0  0  0  0  0  0  0  0
    6.2886    1.9070   -0.6717 B   0  0  0  0  0  0  0  0  0  0  0  0
   -6.4624    4.0296   -0.2101 B   0  0  0  0  0  0  0  0  0  0  0  0
   -4.8541    3.4348   -0.5816 B   0  0  0  0  0  0  0  0  0  0  0  0
   -3.3926    3.8298   -0.7544 B   0  0  0  0  0  0  0  0  0  0  0  0
   -1.9882    3.1957   -0.7343 B   0  0  0  0  0  0  0  0  0  0  0  0
   -0.4495    3.2723   -0.8031 B   0  0  0  0  0  0  0  0  0  0  0  0
    0.7481    2.3341   -0.5459 B   0  0  0  0  0  0  0  0  0  0  0  0
    2.3386    2.4925   -0.1449 B   0  0  0  0  0  0  0  0  0  0  0  0
    3.8066    2.6224    0.2846 B   0  0  0  0  0  0  0  0  0  0  0  0
    5.3544    2.8904    0.2059 B   0  0  0  0  0  0  0  0  0  0  0  0
    6.0787    4.0574    1.0210 B   0  0  0  0  0  0  0  0  0  0  0  0
    6.1973    5.1595    0.6098 H   0  0  0  0  0  0  0  0  0  0  0  0
    8.3100   -1.1394    1.7550 H   0  0  0  0  0  0  0  0  0  0  0  0
    6.4463    2.0629   -1.8358 H   0  0  0  0  0  0  0  0  0  0  0  0
   -7.0355   -5.4251   -0.2110 H   0  0  0  0  0  0  0  0  0  0  0  0
   -6.7139    5.1731   -0.2779 H   0  0  0  0  0  0  0  0  0  0  0  0
    9.2290    1.8026    0.7250 H   0  0  0  0  0  0  0  0  0  0  0  0
   -8.8180   -0.3257    0.2829 H   0  0  0  0  0  0  0  0  0  0  0  0
    6.6518   -5.6525   -1.8236 H   0  0  0  0  0  0  0  0  0  0  0  0
   -8.5125    3.0022    0.9238 H   0  0  0  0  0  0  0  0  0  0  0  0
    7.8047   -2.7207   -1.4294 H   0  0  0  0  0  0  0  0  0  0  0  0
    6.5230    3.8944    2.1045 H   0  0  0  0  0  0  0  0  0  0  0  0
   -7.2651   -5.0795    1.7248 H   0  0  0  0  0  0  0  0  0  0  0  0
  1  2  1  0  0  0  0
  2  3  1  0  0  0  0
  2  4  1  0  0  0  0
  4  5  4  0  0  0  0
  5  6  4  0  0  0  0
  6  7  4  0  0  0  0
  7  8  1  0  0  0  0
  8  9  1  0  0  0  0
  9 10  4  0  0  0  0
 10 11  4  0  0  0  0
 11 12  4  0  0  0  0
 12 13  1  0  0  0  0
 13 14  1  0  0  0  0
 13 15  1  0  0  0  0
 12 16  4  0  0  0  0
  9 17  4  0  0  0  0
 16 17  4  0  0  0  0
 17 18  1  0  0  0  0
  7 19  4  0  0  0  0
 18 19  1  0  0  0  0
  4 20  4  0  0  0  0
 19 20  4  0  0  0  0
  1 21  1  0  0  0  0
  1 22  1  0  0  0  0
  1 23  1  0  0  0  0
  3 24  1  0  0  0  0
  3 25  1  0  0  0  0
  3 26  1  0  0  0  0
  5 27  1  0  0  0  0
  6 28  1  0  0  0  0
  8 29  1  0  0  0  0
 10 30  1  0  0  0  0
 11 31  1  0  0  0  0
 14 32  1  0  0  0  0
 14 33  1  0  0  0  0
 14 34  1  0  0  0  0
 15 35  1  0  0  0  0
 15 36  1  0  0  0  0
 15 37  1  0  0  0  0
 16 38  1  0  0  0  0
 20 39  1  0  0  0  0
 41 42  1  0  0  0  0
 43 44  2  0  0  0  0
 45 46  2  0  0  0  0
 40 47  1  0  0  0  0
 41 47  1  0  0  0  0
 41 48  1  0  0  0  0
 47 48  1  0  0  0  0
 42 49  1  0  0  0  0
 43 50  1  0  0  0  0
 49 50  1  0  0  0  0
 44 51  1  0  0  0  0
 45 51  1  0  0  0  0
 45 52  1  0  0  0  0
 51 52  1  0  0  0  0
 45 53  1  0  0  0  0
 46 53  1  0  0  0  0
 52 53  1  0  0  0  0
 48 54  1  0  0  0  0
 48 55  1  0  0  0  0
 54 55  1  0  0  0  0
 41 56  1  0  0  0  0
 42 56  1  0  0  0  0
 55 56  1  0  0  0  0
 42 57  1  0  0  0  0
 49 57  1  0  0  0  0
 56 57  1  0  0  0  0
 49 58  1  0  0  0  0
 50 58  1  0  0  0  0
 57 58  1  0  0  0  0
 43 59  1  0  0  0  0
 50 59  1  0  0  0  0
 58 59  1  0  0  0  0
 44 60  1  0  0  0  0
 51 60  1  0  0  0  0
 51 61  1  0  0  0  0
 52 61  1  0  0  0  0
 60 61  1  0  0  0  0
 52 62  1  0  0  0  0
 61 62  1  0  0  0  0
 62 63  1  0  0  0  0
 54 64  1  0  0  0  0
 55 64  1  0  0  0  0
 56 65  1  0  0  0  0
 57 65  1  0  0  0  0
 57 66  1  0  0  0  0
 58 66  1  0  0  0  0
 65 66  1  0  0  0  0
 59 67  1  0  0  0  0
 60 67  1  0  0  0  0
 60 68  1  0  0  0  0
 61 68  1  0  0  0  0
 67 68  1  0  0  0  0
 62 69  1  0  0  0  0
 63 69  1  0  0  0  0
 63 70  1  0  0  0  0
 69 70  1  0  0  0  0
 64 71  1  0  0  0  0
 64 72  1  0  0  0  0
 71 72  1  0  0  0  0
 65 73  1  0  0  0  0
 66 74  1  0  0  0  0
 67 75  1  0  0  0  0
 68 76  1  0  0  0  0
 75 76  1  0  0  0  0
 69 77  1  0  0  0  0
 71 78  1  0  0  0  0
 72 78  1  0  0  0  0
 72 79  1  0  0  0  0
 73 79  1  0  0  0  0
 78 79  1  0  0  0  0
 73 80  1  0  0  0  0
 79 80  1  0  0  0  0
 73 81  1  0  0  0  0
 74 81  1  0  0  0  0
 80 81  1  0  0  0  0
 74 82  1  0  0  0  0
 81 82  1  0  0  0  0
 74 83  1  0  0  0  0
 75 83  1  0  0  0  0
 82 83  1  0  0  0  0
 75 84  1  0  0  0  0
 76 84  1  0  0  0  0
 83 84  1  0  0  0  0
 76 85  1  0  0  0  0
 84 85  1  0  0  0  0
 77 86  1  0  0  0  0
 85 86  1  0  0  0  0
 86 87  1  0  0  0  0
 87 88  1  0  0  0  0
 63 89  1  0  0  0  0
 77 90  1  0  0  0  0
 40 91  1  0  0  0  0
 78 92  1  0  0  0  0
 70 93  1  0  0  0  0
 54 94  1  0  0  0  0
 46 95  1  0  0  0  0
 71 96  1  0  0  0  0
 53 97  1  0  0  0  0
 87 98  1  0  0  0  0
 40 99  1  0  0  0  0
M  END
