 xtb: 6.7.1pre (5071a88)
          09012620303D

 94133  0     0  0            999 V2000
    0.3076   -6.2155    8.0320 C   0  0  0  0  0  0  0  0  0  0  0  0
   -0.0542   -4.9291    8.5805 N   0  0  0  0  0  0  0  0  0  0  0  0
   -1.0260   -4.9333    9.6470 C   0  0  0  0  0  0  0  0  0  0  0  0
    0.0341   -3.8151    7.7601 C   0  0  0  0  0  0  0  0  0  0  0  0
    0.8281   -3.8158    6.6090 C   0  0  0  0  0  0  0  0  0  0  0  0
    0.9726   -2.6780    5.8381 C   0  0  0  0  0  0  0  0  0  0  0  0
    0.3120   -1.4947    6.1486 C   0  0  0  0  0  0  0  0  0  0  0  0
    0.4564   -0.3717    5.3477 N   0  0  0  0  0  0  0  0  0  0  0  0
    0.3038    0.9192    5.8399 C   0  0  0  0  0  0  0  0  0  0  0  0
    0.9805    1.9812    5.2522 C   0  0  0  0  0  0  0  0  0  0  0  0
    0.8172    3.2778    5.6948 C   0  0  0  0  0  0  0  0  0  0  0  0
   -0.0266    3.5759    6.7692 C   0  0  0  0  0  0  0  0  0  0  0  0
   -0.1615    4.8754    7.2265 N   0  0  0  0  0  0  0  0  0  0  0  0
    0.1257    5.9514    6.3030 C   0  0  0  0  0  0  0  0  0  0  0  0
   -1.1059    5.1572    8.2786 C   0  0  0  0  0  0  0  0  0  0  0  0
   -0.6878    2.5033    7.3766 C   0  0  0  0  0  0  0  0  0  0  0  0
   -0.5284    1.2091    6.9175 C   0  0  0  0  0  0  0  0  0  0  0  0
   -1.4580   -0.0697    7.7274 S   0  0  0  0  0  0  0  0  0  0  0  0
   -0.5039   -1.4981    7.2789 C   0  0  0  0  0  0  0  0  0  0  0  0
   -0.6316   -2.6239    8.0704 C   0  0  0  0  0  0  0  0  0  0  0  0
    1.3768   -6.2453    7.8142 H   0  0  0  0  0  0  0  0  0  0  0  0
   -0.2442   -6.4492    7.1127 H   0  0  0  0  0  0  0  0  0  0  0  0
    0.0975   -6.9908    8.7655 H   0  0  0  0  0  0  0  0  0  0  0  0
   -2.0593   -4.8587    9.2827 H   0  0  0  0  0  0  0  0  0  0  0  0
   -0.8338   -4.1022   10.3264 H   0  0  0  0  0  0  0  0  0  0  0  0
   -0.9263   -5.8556   10.2163 H   0  0  0  0  0  0  0  0  0  0  0  0
    1.3582   -4.7021    6.3046 H   0  0  0  0  0  0  0  0  0  0  0  0
    1.6058   -2.7089    4.9636 H   0  0  0  0  0  0  0  0  0  0  0  0
    1.1041   -0.4652    4.5780 H   0  0  0  0  0  0  0  0  0  0  0  0
    1.6376    1.7857    4.4205 H   0  0  0  0  0  0  0  0  0  0  0  0
    1.3654    4.0585    5.1972 H   0  0  0  0  0  0  0  0  0  0  0  0
   -0.2553    6.8865    6.7065 H   0  0  0  0  0  0  0  0  0  0  0  0
    1.2047    6.0600    6.1672 H   0  0  0  0  0  0  0  0  0  0  0  0
   -0.3352    5.7834    5.3237 H   0  0  0  0  0  0  0  0  0  0  0  0
   -0.8917    4.5292    9.1437 H   0  0  0  0  0  0  0  0  0  0  0  0
   -0.9942    6.1954    8.5873 H   0  0  0  0  0  0  0  0  0  0  0  0
   -2.1481    4.9935    7.9732 H   0  0  0  0  0  0  0  0  0  0  0  0
   -1.3607    2.6533    8.2036 H   0  0  0  0  0  0  0  0  0  0  0  0
   -1.2811   -2.5499    8.9257 H   0  0  0  0  0  0  0  0  0  0  0  0
   -4.4786   -2.6285    0.1029 B   0  0  0  0  0  0  0  0  0  0  0  0
   -4.1967   -1.0401   -0.0242 B   0  0  0  0  0  0  0  0  0  0  0  0
   -4.1362    0.5495   -0.5523 B   0  0  0  0  0  0  0  0  0  0  0  0
   -3.3646   -2.1708   -0.9388 B   0  0  0  0  0  0  0  0  0  0  0  0
   -2.6271    0.6898   -0.1846 B   0  0  0  0  0  0  0  0  0  0  0  0
   -3.6708    0.1253    1.1711 B   0  0  0  0  0  0  0  0  0  0  0  0
   -4.4506    0.8719    2.3754 B   0  0  0  0  0  0  0  0  0  0  0  0
   -3.9119    2.3850    2.5492 B   0  0  0  0  0  0  0  0  0  0  0  0
   -2.0409    0.0626    1.2440 B   0  0  0  0  0  0  0  0  0  0  0  0
   -2.4932    2.6159    3.2911 B   0  0  0  0  0  0  0  0  0  0  0  0
   -2.3517   -3.0512   -1.9001 B   0  0  0  0  0  0  0  0  0  0  0  0
   -1.8148   -1.6257   -1.2627 B   0  0  0  0  0  0  0  0  0  0  0  0
   -1.3217   -0.2836   -0.4595 B   0  0  0  0  0  0  0  0  0  0  0  0
   -0.7967   -2.8922   -1.4221 B   0  0  0  0  0  0  0  0  0  0  0  0
    0.2044    0.2027   -0.2807 B   0  0  0  0  0  0  0  0  0  0  0  0
   -0.5772   -0.6935    1.0847 B   0  0  0  0  0  0  0  0  0  0  0  0
   -0.7880    0.7149    2.1724 B   0  0  0  0  0  0  0  0  0  0  0  0
   -1.2092    2.2166    2.4364 B   0  0  0  0  0  0  0  0  0  0  0  0
    0.6874    0.1323    1.7653 B   0  0  0  0  0  0  0  0  0  0  0  0
    0.0772    2.9919    1.7663 B   0  0  0  0  0  0  0  0  0  0  0  0
    0.0330   -3.5771   -0.0654 B   0  0  0  0  0  0  0  0  0  0  0  0
    0.7697   -2.7144   -1.2480 B   0  0  0  0  0  0  0  0  0  0  0  0
    1.8212   -1.5578   -1.0730 B   0  0  0  0  0  0  0  0  0  0  0  0
    1.2693   -2.6300    0.3882 B   0  0  0  0  0  0  0  0  0  0  0  0
    3.0751   -0.5958   -1.1668 B   0  0  0  0  0  0  0  0  0  0  0  0
    1.5797    0.1444   -1.0064 B   0  0  0  0  0  0  0  0  0  0  0  0
    1.4669    1.1004    0.5470 B   0  0  0  0  0  0  0  0  0  0  0  0
    0.8298    2.6428    0.4141 B   0  0  0  0  0  0  0  0  0  0  0  0
    2.7658    1.1854   -0.6538 B   0  0  0  0  0  0  0  0  0  0  0  0
    1.4126    3.0804   -1.0363 B   0  0  0  0  0  0  0  0  0  0  0  0
    0.6146   -1.7027    1.7218 B   0  0  0  0  0  0  0  0  0  0  0  0
    2.3707   -1.7231    1.0338 B   0  0  0  0  0  0  0  0  0  0  0  0
    3.6201   -0.7592    1.0944 B   0  0  0  0  0  0  0  0  0  0  0  0
    2.2820   -0.0916    1.9487 B   0  0  0  0  0  0  0  0  0  0  0  0
    5.0550   -0.1322    0.9997 B   0  0  0  0  0  0  0  0  0  0  0  0
    4.3629    0.0799   -0.5709 B   0  0  0  0  0  0  0  0  0  0  0  0
    4.3180    1.9349   -0.4976 B   0  0  0  0  0  0  0  0  0  0  0  0
    3.0114    2.8373   -0.9724 B   0  0  0  0  0  0  0  0  0  0  0  0
    5.6428    0.9818   -0.3186 B   0  0  0  0  0  0  0  0  0  0  0  0
    4.3950    3.4976   -0.6207 B   0  0  0  0  0  0  0  0  0  0  0  0
   -4.7445   -3.5763    0.7392 H   0  0  0  0  0  0  0  0  0  0  0  0
   -5.3753   -1.7029    0.2087 H   0  0  0  0  0  0  0  0  0  0  0  0
   -5.0481    1.0953   -1.0583 H   0  0  0  0  0  0  0  0  0  0  0  0
   -5.2871    0.3585    3.0348 H   0  0  0  0  0  0  0  0  0  0  0  0
   -4.4799    3.2893    2.0460 H   0  0  0  0  0  0  0  0  0  0  0  0
   -2.4461    2.9857    4.4102 H   0  0  0  0  0  0  0  0  0  0  0  0
   -2.7080   -3.7249   -2.7970 H   0  0  0  0  0  0  0  0  0  0  0  0
    0.6711    3.5366    2.6337 H   0  0  0  0  0  0  0  0  0  0  0  0
   -0.4932   -4.4817    0.4620 H   0  0  0  0  0  0  0  0  0  0  0  0
    0.8263    3.2868   -2.0405 H   0  0  0  0  0  0  0  0  0  0  0  0
    0.4428   -2.2385    2.7679 H   0  0  0  0  0  0  0  0  0  0  0  0
    2.6838    0.1659    3.0409 H   0  0  0  0  0  0  0  0  0  0  0  0
    5.9547   -0.0739    1.7484 H   0  0  0  0  0  0  0  0  0  0  0  0
    6.7855    1.1771   -0.4943 H   0  0  0  0  0  0  0  0  0  0  0  0
    5.0467    4.4606   -0.5237 H   0  0  0  0  0  0  0  0  0  0  0  0
  1  2  1  0  0  0  0
  2  3  1  0  0  0  0
  2  4  1  0  0  0  0
  4  5  4  0  0  0  0
  5  6  4  0  0  0  0
  6  7  4  0  0  0  0
  7  8  1  0  0  0  0
  8  9  1  0  0  0  0
  9 10  4  0  0  0  0
 10 11  4  0  0  0  0
 11 12  4  0  0  0  0
 12 13  1  0  0  0  0
 13 14  1  0  0  0  0
 13 15  1  0  0  0  0
 12 16  4  0  0  0  0
  9 17  4  0  0  0  0
 16 17  4  0  0  0  0
 17 18  1  0  0  0  0
  7 19  4  0  0  0  0
 18 19  1  0  0  0  0
  4 20  4  0  0  0  0
 19 20  4  0  0  0  0
  1 21  1  0  0  0  0
  1 22  1  0  0  0  0
  1 23  1  0  0  0  0
  3 24  1  0  0  0  0
  3 25  1  0  0  0  0
  3 26  1  0  0  0  0
  5 27  1  0  0  0  0
  6 28  1  0  0  0  0
  8 29  1  0  0  0  0
 10 30  1  0  0  0  0
 11 31  1  0  0  0  0
 14 32  1  0  0  0  0
 14 33  1  0  0  0  0
 14 34  1  0  0  0  0
 15 35  1  0  0  0  0
 15 36  1  0  0  0  0
 15 37  1  0  0  0  0
 16 38  1  0  0  0  0
 20 39  1  0  0  0  0
 40 41  1  0  0  0  0
 41 42  1  0  0  0  0
 40 43  1  0  0  0  0
 41 43  1  0  0  0  0
 42 44  1  0  0  0  0
 41 45  1  0  0  0  0
 42 45  1  0  0  0  0
 44 45  1  0  0  0  0
 45 46  1  0  0  0  0
 46 47  1  0  0  0  0
 44 48  1  0  0  0  0
 45 48  1  0  0  0  0
 47 49  1  0  0  0  0
 43 50  1  0  0  0  0
 43 51  1  0  0  0  0
 50 51  1  0  0  0  0
 44 52  1  0  0  0  0
 48 52  1  0  0  0  0
 51 52  1  0  0  0  0
 50 53  1  0  0  0  0
 51 53  1  0  0  0  0
 52 54  1  0  0  0  0
 48 55  1  0  0  0  0
 52 55  1  0  0  0  0
 54 55  1  0  0  0  0
 48 56  1  0  0  0  0
 55 56  1  0  0  0  0
 49 57  1  0  0  0  0
 56 57  1  0  0  0  0
 55 58  1  0  0  0  0
 56 58  1  0  0  0  0
 57 59  1  0  0  0  0
 53 60  1  0  0  0  0
 53 61  1  0  0  0  0
 60 61  1  0  0  0  0
 61 62  1  0  0  0  0
 60 63  1  0  0  0  0
 61 63  1  0  0  0  0
 62 63  1  0  0  0  0
 62 64  1  0  0  0  0
 54 65  1  0  0  0  0
 62 65  1  0  0  0  0
 64 65  1  0  0  0  0
 54 66  1  0  0  0  0
 58 66  1  0  0  0  0
 65 66  1  0  0  0  0
 59 67  1  0  0  0  0
 66 67  1  0  0  0  0
 64 68  1  0  0  0  0
 65 68  1  0  0  0  0
 66 68  1  0  0  0  0
 67 69  1  0  0  0  0
 55 70  1  0  0  0  0
 58 70  1  0  0  0  0
 63 70  1  0  0  0  0
 63 71  1  0  0  0  0
 70 71  1  0  0  0  0
 71 72  1  0  0  0  0
 58 73  1  0  0  0  0
 66 73  1  0  0  0  0
 71 73  1  0  0  0  0
 72 73  1  0  0  0  0
 72 74  1  0  0  0  0
 64 75  1  0  0  0  0
 68 75  1  0  0  0  0
 74 75  1  0  0  0  0
 68 76  1  0  0  0  0
 75 76  1  0  0  0  0
 68 77  1  0  0  0  0
 69 77  1  0  0  0  0
 76 77  1  0  0  0  0
 74 78  1  0  0  0  0
 75 78  1  0  0  0  0
 76 78  1  0  0  0  0
 76 79  1  0  0  0  0
 77 79  1  0  0  0  0
 40 80  1  0  0  0  0
 40 81  1  0  0  0  0
 41 81  1  0  0  0  0
 42 82  1  0  0  0  0
 46 83  1  0  0  0  0
 47 84  1  0  0  0  0
 49 85  1  0  0  0  0
 50 86  1  0  0  0  0
 59 87  1  0  0  0  0
 60 88  1  0  0  0  0
 69 89  1  0  0  0  0
 70 90  1  0  0  0  0
 73 91  1  0  0  0  0
 74 92  1  0  0  0  0
 78 93  1  0  0  0  0
 79 94  1  0  0  0  0
M  END
