 xtb: 6.7.1pre (5071a88)
          09022615073D

 94132  0     0  0            999 V2000
    0.4851    6.5487    7.0496 C   0  0  0  0  0  0  0  0  0  0  0  0
    0.4579    5.2660    7.7136 N   0  0  0  0  0  0  0  0  0  0  0  0
    1.0219    5.2103    9.0401 C   0  0  0  0  0  0  0  0  0  0  0  0
    0.4501    4.1196    6.9363 C   0  0  0  0  0  0  0  0  0  0  0  0
    0.0566    4.1495    5.5941 C   0  0  0  0  0  0  0  0  0  0  0  0
   -0.0289    2.9918    4.8452 C   0  0  0  0  0  0  0  0  0  0  0  0
    0.2980    1.7513    5.3838 C   0  0  0  0  0  0  0  0  0  0  0  0
    0.2098    0.6062    4.6056 N   0  0  0  0  0  0  0  0  0  0  0  0
    0.0399   -0.6610    5.1461 C   0  0  0  0  0  0  0  0  0  0  0  0
   -0.5616   -1.6664    4.3978 C   0  0  0  0  0  0  0  0  0  0  0  0
   -0.6967   -2.9526    4.8778 C   0  0  0  0  0  0  0  0  0  0  0  0
   -0.2412   -3.2948    6.1544 C   0  0  0  0  0  0  0  0  0  0  0  0
   -0.3909   -4.5817    6.6348 N   0  0  0  0  0  0  0  0  0  0  0  0
   -0.5255   -5.6535    5.6714 C   0  0  0  0  0  0  0  0  0  0  0  0
    0.1472   -4.9245    7.9270 C   0  0  0  0  0  0  0  0  0  0  0  0
    0.3348   -2.2760    6.9224 C   0  0  0  0  0  0  0  0  0  0  0  0
    0.4749   -0.9930    6.4280 C   0  0  0  0  0  0  0  0  0  0  0  0
    1.2673    0.2069    7.4703 S   0  0  0  0  0  0  0  0  0  0  0  0
    0.7281    1.7195    6.7091 C   0  0  0  0  0  0  0  0  0  0  0  0
    0.7945    2.8722    7.4691 C   0  0  0  0  0  0  0  0  0  0  0  0
   -0.4500    6.7155    6.5119 H   0  0  0  0  0  0  0  0  0  0  0  0
    1.3176    6.6344    6.3403 H   0  0  0  0  0  0  0  0  0  0  0  0
    0.5852    7.3361    7.7933 H   0  0  0  0  0  0  0  0  0  0  0  0
    2.0949    4.9767    9.0383 H   0  0  0  0  0  0  0  0  0  0  0  0
    0.5009    4.4575    9.6326 H   0  0  0  0  0  0  0  0  0  0  0  0
    0.8790    6.1724    9.5285 H   0  0  0  0  0  0  0  0  0  0  0  0
   -0.2052    5.0776    5.1164 H   0  0  0  0  0  0  0  0  0  0  0  0
   -0.3528    3.0516    3.8175 H   0  0  0  0  0  0  0  0  0  0  0  0
   -0.1780    0.7414    3.6683 H   0  0  0  0  0  0  0  0  0  0  0  0
   -0.9326   -1.4331    3.4099 H   0  0  0  0  0  0  0  0  0  0  0  0
   -1.1666   -3.6824    4.2432 H   0  0  0  0  0  0  0  0  0  0  0  0
   -0.3703   -6.6076    6.1687 H   0  0  0  0  0  0  0  0  0  0  0  0
   -1.5295   -5.6556    5.2409 H   0  0  0  0  0  0  0  0  0  0  0  0
    0.2030   -5.5611    4.8602 H   0  0  0  0  0  0  0  0  0  0  0  0
   -0.2360   -4.2364    8.6807 H   0  0  0  0  0  0  0  0  0  0  0  0
   -0.1831   -5.9266    8.1950 H   0  0  0  0  0  0  0  0  0  0  0  0
    1.2449   -4.8990    7.9532 H   0  0  0  0  0  0  0  0  0  0  0  0
    0.7116   -2.4657    7.9129 H   0  0  0  0  0  0  0  0  0  0  0  0
    1.1393    2.7712    8.4840 H   0  0  0  0  0  0  0  0  0  0  0  0
   -4.9834   -2.8155    1.7079 B   0  0  0  0  0  0  0  0  0  0  0  0
   -4.6867   -1.8483    0.4788 B   0  0  0  0  0  0  0  0  0  0  0  0
   -4.5461   -1.0637   -0.9846 B   0  0  0  0  0  0  0  0  0  0  0  0
   -3.5429   -3.0545    1.0349 B   0  0  0  0  0  0  0  0  0  0  0  0
   -3.1156   -0.5739   -0.6027 B   0  0  0  0  0  0  0  0  0  0  0  0
   -4.4770   -0.0818    0.5103 B   0  0  0  0  0  0  0  0  0  0  0  0
   -5.0735    1.1672    1.3057 B   0  0  0  0  0  0  0  0  0  0  0  0
   -4.6800    2.7623    1.1977 B   0  0  0  0  0  0  0  0  0  0  0  0
   -2.8973    0.1877    0.8531 B   0  0  0  0  0  0  0  0  0  0  0  0
   -3.2392    3.1141    1.8751 B   0  0  0  0  0  0  0  0  0  0  0  0
   -2.3107   -4.1084    1.4060 B   0  0  0  0  0  0  0  0  0  0  0  0
   -1.9993   -2.7789    0.5804 B   0  0  0  0  0  0  0  0  0  0  0  0
   -1.7819   -1.1955    0.1698 B   0  0  0  0  0  0  0  0  0  0  0  0
   -0.7217   -3.6197    1.1325 B   0  0  0  0  0  0  0  0  0  0  0  0
   -0.2949   -0.6070    0.5220 B   0  0  0  0  0  0  0  0  0  0  0  0
   -1.4815   -0.1034    1.5886 B   0  0  0  0  0  0  0  0  0  0  0  0
   -1.8637    1.4461    1.0816 B   0  0  0  0  0  0  0  0  0  0  0  0
   -1.9705    3.0176    0.8988 B   0  0  0  0  0  0  0  0  0  0  0  0
   -0.3038    0.9241    1.5259 B   0  0  0  0  0  0  0  0  0  0  0  0
   -0.8252    4.0310    0.3474 B   0  0  0  0  0  0  0  0  0  0  0  0
    0.6366   -4.3343    1.8101 B   0  0  0  0  0  0  0  0  0  0  0  0
    0.7870   -2.9259    1.0375 B   0  0  0  0  0  0  0  0  0  0  0  0
    1.1445   -1.4463    0.5608 B   0  0  0  0  0  0  0  0  0  0  0  0
    1.9417   -3.3956    2.1415 B   0  0  0  0  0  0  0  0  0  0  0  0
    2.5367   -0.6327    0.6491 B   0  0  0  0  0  0  0  0  0  0  0  0
    1.1426    0.2142    0.7883 B   0  0  0  0  0  0  0  0  0  0  0  0
    1.0487    1.8439    1.2923 B   0  0  0  0  0  0  0  0  0  0  0  0
    0.4711    3.1453    0.5523 B   0  0  0  0  0  0  0  0  0  0  0  0
    2.3799    1.2732    0.4580 B   0  0  0  0  0  0  0  0  0  0  0  0
    1.1196    2.3690   -0.7811 B   0  0  0  0  0  0  0  0  0  0  0  0
    2.7553   -3.1261    3.6031 B   0  0  0  0  0  0  0  0  0  0  0  0
    3.3672   -2.6181    2.1807 B   0  0  0  0  0  0  0  0  0  0  0  0
    3.9028   -1.4014    1.2799 B   0  0  0  0  0  0  0  0  0  0  0  0
    3.9430   -2.0492    3.5381 B   0  0  0  0  0  0  0  0  0  0  0  0
    5.2958   -0.7974    0.6224 B   0  0  0  0  0  0  0  0  0  0  0  0
    4.0006    0.1775    0.7158 B   0  0  0  0  0  0  0  0  0  0  0  0
    3.9450    1.8594    0.1482 B   0  0  0  0  0  0  0  0  0  0  0  0
    2.7259    2.3862   -0.8830 B   0  0  0  0  0  0  0  0  0  0  0  0
    5.3334    0.9647    0.2531 B   0  0  0  0  0  0  0  0  0  0  0  0
    4.1980    2.7807   -1.1344 B   0  0  0  0  0  0  0  0  0  0  0  0
   -5.4604   -3.0674    2.7485 H   0  0  0  0  0  0  0  0  0  0  0  0
   -5.8575   -2.4410    0.8272 H   0  0  0  0  0  0  0  0  0  0  0  0
   -5.3393   -1.1327   -1.8561 H   0  0  0  0  0  0  0  0  0  0  0  0
   -5.7750    0.9425    2.2418 H   0  0  0  0  0  0  0  0  0  0  0  0
   -5.4547    3.5544    0.7923 H   0  0  0  0  0  0  0  0  0  0  0  0
   -3.1960    3.2589    3.0483 H   0  0  0  0  0  0  0  0  0  0  0  0
   -2.5266   -5.1746    1.8461 H   0  0  0  0  0  0  0  0  0  0  0  0
   -0.9727    5.0776   -0.1757 H   0  0  0  0  0  0  0  0  0  0  0  0
    0.6175   -5.4692    2.1038 H   0  0  0  0  0  0  0  0  0  0  0  0
    0.4334    1.8402   -1.5903 H   0  0  0  0  0  0  0  0  0  0  0  0
    2.3813   -3.6646    4.5723 H   0  0  0  0  0  0  0  0  0  0  0  0
    4.6889   -1.3865    4.1401 H   0  0  0  0  0  0  0  0  0  0  0  0
    6.3544   -1.2873    0.5189 H   0  0  0  0  0  0  0  0  0  0  0  0
    6.4290    1.3754    0.2090 H   0  0  0  0  0  0  0  0  0  0  0  0
    5.0410    3.3371   -1.7201 H   0  0  0  0  0  0  0  0  0  0  0  0
  1  2  1  0  0  0  0
  2  3  1  0  0  0  0
  2  4  1  0  0  0  0
  4  5  4  0  0  0  0
  5  6  4  0  0  0  0
  6  7  4  0  0  0  0
  7  8  1  0  0  0  0
  8  9  1  0  0  0  0
  9 10  4  0  0  0  0
 10 11  4  0  0  0  0
 11 12  4  0  0  0  0
 12 13  1  0  0  0  0
 13 14  1  0  0  0  0
 13 15  1  0  0  0  0
 12 16  4  0  0  0  0
  9 17  4  0  0  0  0
 16 17  4  0  0  0  0
 17 18  1  0  0  0  0
  7 19  4  0  0  0  0
 18 19  1  0  0  0  0
  4 20  4  0  0  0  0
 19 20  4  0  0  0  0
  1 21  1  0  0  0  0
  1 22  1  0  0  0  0
  1 23  1  0  0  0  0
  3 24  1  0  0  0  0
  3 25  1  0  0  0  0
  3 26  1  0  0  0  0
  5 27  1  0  0  0  0
  6 28  1  0  0  0  0
  8 29  1  0  0  0  0
 10 30  1  0  0  0  0
 11 31  1  0  0  0  0
 14 32  1  0  0  0  0
 14 33  1  0  0  0  0
 14 34  1  0  0  0  0
 15 35  1  0  0  0  0
 15 36  1  0  0  0  0
 15 37  1  0  0  0  0
 16 38  1  0  0  0  0
 20 39  1  0  0  0  0
 40 41  1  0  0  0  0
 41 42  1  0  0  0  0
 40 43  1  0  0  0  0
 41 43  1  0  0  0  0
 42 44  1  0  0  0  0
 41 45  1  0  0  0  0
 42 45  1  0  0  0  0
 44 45  1  0  0  0  0
 45 46  1  0  0  0  0
 46 47  1  0  0  0  0
 44 48  1  0  0  0  0
 45 48  1  0  0  0  0
 47 49  1  0  0  0  0
 43 50  1  0  0  0  0
 43 51  1  0  0  0  0
 50 51  1  0  0  0  0
 44 52  1  0  0  0  0
 48 52  1  0  0  0  0
 51 52  1  0  0  0  0
 50 53  1  0  0  0  0
 51 53  1  0  0  0  0
 52 54  1  0  0  0  0
 48 55  1  0  0  0  0
 52 55  1  0  0  0  0
 54 55  1  0  0  0  0
 48 56  1  0  0  0  0
 55 56  1  0  0  0  0
 49 57  1  0  0  0  0
 56 57  1  0  0  0  0
 54 58  1  0  0  0  0
 55 58  1  0  0  0  0
 56 58  1  0  0  0  0
 57 59  1  0  0  0  0
 53 60  1  0  0  0  0
 53 61  1  0  0  0  0
 60 61  1  0  0  0  0
 54 62  1  0  0  0  0
 61 62  1  0  0  0  0
 60 63  1  0  0  0  0
 61 63  1  0  0  0  0
 62 64  1  0  0  0  0
 54 65  1  0  0  0  0
 58 65  1  0  0  0  0
 62 65  1  0  0  0  0
 64 65  1  0  0  0  0
 58 66  1  0  0  0  0
 65 66  1  0  0  0  0
 59 67  1  0  0  0  0
 66 67  1  0  0  0  0
 64 68  1  0  0  0  0
 65 68  1  0  0  0  0
 66 68  1  0  0  0  0
 67 69  1  0  0  0  0
 63 70  1  0  0  0  0
 63 71  1  0  0  0  0
 70 71  1  0  0  0  0
 64 72  1  0  0  0  0
 71 72  1  0  0  0  0
 70 73  1  0  0  0  0
 71 73  1  0  0  0  0
 72 74  1  0  0  0  0
 64 75  1  0  0  0  0
 68 75  1  0  0  0  0
 72 75  1  0  0  0  0
 74 75  1  0  0  0  0
 68 76  1  0  0  0  0
 75 76  1  0  0  0  0
 68 77  1  0  0  0  0
 69 77  1  0  0  0  0
 76 77  1  0  0  0  0
 74 78  1  0  0  0  0
 75 78  1  0  0  0  0
 76 78  1  0  0  0  0
 76 79  1  0  0  0  0
 77 79  1  0  0  0  0
 40 80  1  0  0  0  0
 40 81  1  0  0  0  0
 41 81  1  0  0  0  0
 42 82  1  0  0  0  0
 46 83  1  0  0  0  0
 47 84  1  0  0  0  0
 49 85  1  0  0  0  0
 50 86  1  0  0  0  0
 59 87  1  0  0  0  0
 60 88  1  0  0  0  0
 69 89  1  0  0  0  0
 70 90  1  0  0  0  0
 73 91  1  0  0  0  0
 74 92  1  0  0  0  0
 78 93  1  0  0  0  0
 79 94  1  0  0  0  0
M  END
