 xtb: 6.7.1pre (5071a88)
          08312620193D

 99130  0     0  0            999 V2000
    6.2985    0.0681    3.4579 C   0  0  0  0  0  0  0  0  0  0  0  0
    5.1127   -0.3887    4.1815 N   0  0  0  0  0  0  0  0  0  0  0  0
    5.2213   -1.7097    4.7989 C   0  0  0  0  0  0  0  0  0  0  0  0
    3.8550    0.0758    3.7770 C   0  0  0  0  0  0  0  0  0  0  0  0
    3.7054    1.2405    3.0089 C   0  0  0  0  0  0  0  0  0  0  0  0
    2.4481    1.7223    2.6164 C   0  0  0  0  0  0  0  0  0  0  0  0
    1.2741    1.0697    2.9981 C   0  0  0  0  0  0  0  0  0  0  0  0
    0.0392    1.5607    2.5440 N   0  0  0  0  0  0  0  0  0  0  0  0
   -1.2301    1.0610    2.8776 C   0  0  0  0  0  0  0  0  0  0  0  0
   -2.3665    1.7055    2.3847 C   0  0  0  0  0  0  0  0  0  0  0  0
   -3.6522    1.2149    2.6548 C   0  0  0  0  0  0  0  0  0  0  0  0
   -3.8669    0.0489    3.4054 C   0  0  0  0  0  0  0  0  0  0  0  0
   -5.1543   -0.4245    3.6873 N   0  0  0  0  0  0  0  0  0  0  0  0
   -6.2682    0.0241    2.8529 C   0  0  0  0  0  0  0  0  0  0  0  0
   -5.3125   -1.7463    4.2921 C   0  0  0  0  0  0  0  0  0  0  0  0
   -2.7078   -0.5863    3.8866 C   0  0  0  0  0  0  0  0  0  0  0  0
   -1.4074   -0.1083    3.6233 C   0  0  0  0  0  0  0  0  0  0  0  0
   -0.0354   -1.0458    4.2837 S   0  0  0  0  0  0  0  0  0  0  0  0
    1.3871   -0.0986    3.7578 C   0  0  0  0  0  0  0  0  0  0  0  0
    2.6596   -0.5675    4.1449 C   0  0  0  0  0  0  0  0  0  0  0  0
    6.4466    1.1462    3.5806 H   0  0  0  0  0  0  0  0  0  0  0  0
    6.2279   -0.1755    2.3919 H   0  0  0  0  0  0  0  0  0  0  0  0
    7.2083   -0.4054    3.8439 H   0  0  0  0  0  0  0  0  0  0  0  0
    4.9014   -2.4957    4.1060 H   0  0  0  0  0  0  0  0  0  0  0  0
    4.6321   -1.7668    5.7205 H   0  0  0  0  0  0  0  0  0  0  0  0
    6.2549   -1.9262    5.0916 H   0  0  0  0  0  0  0  0  0  0  0  0
    4.5695    1.8164    2.6923 H   0  0  0  0  0  0  0  0  0  0  0  0
    2.4034    2.6216    2.0081 H   0  0  0  0  0  0  0  0  0  0  0  0
    0.0526    2.5107    2.1976 H   0  0  0  0  0  0  0  0  0  0  0  0
   -2.2699    2.6053    1.7832 H   0  0  0  0  0  0  0  0  0  0  0  0
   -4.4860    1.7848    2.2565 H   0  0  0  0  0  0  0  0  0  0  0  0
   -7.2076   -0.4559    3.1499 H   0  0  0  0  0  0  0  0  0  0  0  0
   -6.4351    1.1011    2.9604 H   0  0  0  0  0  0  0  0  0  0  0  0
   -6.0938   -0.2187    1.7988 H   0  0  0  0  0  0  0  0  0  0  0  0
   -4.8141   -1.7995    5.2661 H   0  0  0  0  0  0  0  0  0  0  0  0
   -6.3680   -1.9701    4.4843 H   0  0  0  0  0  0  0  0  0  0  0  0
   -4.9221   -2.5300    3.6335 H   0  0  0  0  0  0  0  0  0  0  0  0
   -2.7910   -1.4886    4.4850 H   0  0  0  0  0  0  0  0  0  0  0  0
    2.6912   -1.4695    4.7488 H   0  0  0  0  0  0  0  0  0  0  0  0
   -7.5000   -4.5000    0.0000 B   0  0  0  0  0  0  0  0  0  0  0  0
   -4.5000   -4.5000    0.0000 B   0  0  0  0  0  0  0  0  0  0  0  0
   -1.5000   -4.5000    0.0000 B   0  0  0  0  0  0  0  0  0  0  0  0
    1.5000   -4.5000    0.0000 B   0  0  0  0  0  0  0  0  0  0  0  0
    4.5000   -4.5000    0.0000 B   0  0  0  0  0  0  0  0  0  0  0  0
    7.5000   -4.5000    0.0000 B   0  0  0  0  0  0  0  0  0  0  0  0
   -7.5000   -3.0000    0.0000 B   0  0  0  0  0  0  0  0  0  0  0  0
   -4.5000   -3.0000    0.0000 B   0  0  0  0  0  0  0  0  0  0  0  0
   -1.5000   -3.0000    0.0000 B   0  0  0  0  0  0  0  0  0  0  0  0
    1.5000   -3.0000    0.0000 B   0  0  0  0  0  0  0  0  0  0  0  0
    4.5000   -3.0000    0.0000 B   0  0  0  0  0  0  0  0  0  0  0  0
    7.5000   -3.0000    0.0000 B   0  0  0  0  0  0  0  0  0  0  0  0
   -7.5000   -1.5000    0.0000 B   0  0  0  0  0  0  0  0  0  0  0  0
   -4.5000   -1.5000    0.0000 B   0  0  0  0  0  0  0  0  0  0  0  0
   -1.5000   -1.5000    0.0000 B   0  0  0  0  0  0  0  0  0  0  0  0
    1.5000   -1.5000    0.0000 B   0  0  0  0  0  0  0  0  0  0  0  0
    4.5000   -1.5000    0.0000 B   0  0  0  0  0  0  0  0  0  0  0  0
    7.5000   -1.5000    0.0000 B   0  0  0  0  0  0  0  0  0  0  0  0
   -7.5000    0.0000    0.0000 B   0  0  0  0  0  0  0  0  0  0  0  0
   -4.5000    0.0000    0.0000 B   0  0  0  0  0  0  0  0  0  0  0  0
   -1.5000    0.0000    0.0000 B   0  0  0  0  0  0  0  0  0  0  0  0
    1.5000    0.0000    0.0000 B   0  0  0  0  0  0  0  0  0  0  0  0
    4.5000    0.0000    0.0000 B   0  0  0  0  0  0  0  0  0  0  0  0
    7.5000    0.0000    0.0000 B   0  0  0  0  0  0  0  0  0  0  0  0
   -7.5000    1.5000    0.0000 B   0  0  0  0  0  0  0  0  0  0  0  0
   -4.5000    1.5000    0.0000 B   0  0  0  0  0  0  0  0  0  0  0  0
   -1.5000    1.5000    0.0000 B   0  0  0  0  0  0  0  0  0  0  0  0
    1.5000    1.5000    0.0000 B   0  0  0  0  0  0  0  0  0  0  0  0
    4.5000    1.5000    0.0000 B   0  0  0  0  0  0  0  0  0  0  0  0
    7.5000    1.5000    0.0000 B   0  0  0  0  0  0  0  0  0  0  0  0
   -7.5000    3.0000    0.0000 B   0  0  0  0  0  0  0  0  0  0  0  0
   -4.5000    3.0000    0.0000 B   0  0  0  0  0  0  0  0  0  0  0  0
   -1.5000    3.0000    0.0000 B   0  0  0  0  0  0  0  0  0  0  0  0
    1.5000    3.0000    0.0000 B   0  0  0  0  0  0  0  0  0  0  0  0
    4.5000    3.0000    0.0000 B   0  0  0  0  0  0  0  0  0  0  0  0
    7.5000    3.0000    0.0000 B   0  0  0  0  0  0  0  0  0  0  0  0
   -7.5000    4.5000    0.0000 B   0  0  0  0  0  0  0  0  0  0  0  0
   -4.5000    4.5000    0.0000 B   0  0  0  0  0  0  0  0  0  0  0  0
   -1.5000    4.5000    0.0000 B   0  0  0  0  0  0  0  0  0  0  0  0
    1.5000    4.5000    0.0000 B   0  0  0  0  0  0  0  0  0  0  0  0
    4.5000    4.5000    0.0000 B   0  0  0  0  0  0  0  0  0  0  0  0
    7.5000    4.5000    0.0000 B   0  0  0  0  0  0  0  0  0  0  0  0
   -6.0000   -3.7500    0.0000 B   0  0  0  0  0  0  0  0  0  0  0  0
   -3.0000   -3.7500    0.0000 B   0  0  0  0  0  0  0  0  0  0  0  0
    0.0000   -3.7500    0.0000 B   0  0  0  0  0  0  0  0  0  0  0  0
    3.0000   -3.7500    0.0000 B   0  0  0  0  0  0  0  0  0  0  0  0
    6.0000   -3.7500    0.0000 B   0  0  0  0  0  0  0  0  0  0  0  0
   -6.0000    3.7500    0.0000 B   0  0  0  0  0  0  0  0  0  0  0  0
   -3.0000    3.7500    0.0000 B   0  0  0  0  0  0  0  0  0  0  0  0
    0.0000    3.7500    0.0000 B   0  0  0  0  0  0  0  0  0  0  0  0
    3.0000    3.7500    0.0000 B   0  0  0  0  0  0  0  0  0  0  0  0
    6.0000    3.7500    0.0000 B   0  0  0  0  0  0  0  0  0  0  0  0
   -6.0000    0.0000    0.0000 B   0  0  0  0  0  0  0  0  0  0  0  0
   -8.6000   -4.5000    0.0000 H   0  0  0  0  0  0  0  0  0  0  0  0
   -8.6000   -1.5000    0.0000 H   0  0  0  0  0  0  0  0  0  0  0  0
   -8.6000    1.5000    0.0000 H   0  0  0  0  0  0  0  0  0  0  0  0
   -8.6000    4.5000    0.0000 H   0  0  0  0  0  0  0  0  0  0  0  0
    8.6000   -4.5000    0.0000 H   0  0  0  0  0  0  0  0  0  0  0  0
    8.6000   -1.5000    0.0000 H   0  0  0  0  0  0  0  0  0  0  0  0
    8.6000    1.5000    0.0000 H   0  0  0  0  0  0  0  0  0  0  0  0
  1  2  1  0  0  0  0
  2  3  1  0  0  0  0
  2  4  1  0  0  0  0
  4  5  4  0  0  0  0
  5  6  4  0  0  0  0
  6  7  4  0  0  0  0
  7  8  1  0  0  0  0
  8  9  1  0  0  0  0
  9 10  4  0  0  0  0
 10 11  4  0  0  0  0
 11 12  4  0  0  0  0
 12 13  1  0  0  0  0
 13 14  1  0  0  0  0
 13 15  1  0  0  0  0
 12 16  4  0  0  0  0
  9 17  4  0  0  0  0
 16 17  4  0  0  0  0
 17 18  1  0  0  0  0
  7 19  4  0  0  0  0
 18 19  1  0  0  0  0
  4 20  4  0  0  0  0
 19 20  4  0  0  0  0
  1 21  1  0  0  0  0
  1 22  1  0  0  0  0
  1 23  1  0  0  0  0
  3 24  1  0  0  0  0
  3 25  1  0  0  0  0
  3 26  1  0  0  0  0
  5 27  1  0  0  0  0
  6 28  1  0  0  0  0
  8 29  1  0  0  0  0
 10 30  1  0  0  0  0
 11 31  1  0  0  0  0
 14 32  1  0  0  0  0
 14 33  1  0  0  0  0
 14 34  1  0  0  0  0
 15 35  1  0  0  0  0
 15 36  1  0  0  0  0
 15 37  1  0  0  0  0
 16 38  1  0  0  0  0
 20 39  1  0  0  0  0
 40 46  1  0  0  0  0
 41 47  1  0  0  0  0
 42 48  1  0  0  0  0
 43 49  1  0  0  0  0
 44 50  1  0  0  0  0
 45 51  1  0  0  0  0
 46 52  1  0  0  0  0
 47 53  1  0  0  0  0
 48 54  1  0  0  0  0
 49 55  1  0  0  0  0
 50 56  1  0  0  0  0
 51 57  1  0  0  0  0
 52 58  1  0  0  0  0
 53 59  1  0  0  0  0
 54 60  2  0  0  0  0
 55 61  2  0  0  0  0
 56 62  2  0  0  0  0
 57 63  1  0  0  0  0
 58 64  1  0  0  0  0
 59 65  1  0  0  0  0
 60 66  2  0  0  0  0
 61 67  2  0  0  0  0
 62 68  2  0  0  0  0
 63 69  2  0  0  0  0
 64 70  1  0  0  0  0
 65 71  1  0  0  0  0
 66 72  1  0  0  0  0
 67 73  1  0  0  0  0
 68 74  1  0  0  0  0
 69 75  1  0  0  0  0
 70 76  1  0  0  0  0
 71 77  1  0  0  0  0
 72 78  1  0  0  0  0
 73 79  1  0  0  0  0
 74 80  1  0  0  0  0
 75 81  2  0  0  0  0
 40 82  1  0  0  0  0
 41 82  1  0  0  0  0
 46 82  1  0  0  0  0
 47 82  1  0  0  0  0
 41 83  1  0  0  0  0
 42 83  1  0  0  0  0
 47 83  1  0  0  0  0
 48 83  1  0  0  0  0
 42 84  1  0  0  0  0
 43 84  1  0  0  0  0
 48 84  1  0  0  0  0
 49 84  1  0  0  0  0
 43 85  1  0  0  0  0
 44 85  1  0  0  0  0
 49 85  1  0  0  0  0
 50 85  1  0  0  0  0
 44 86  1  0  0  0  0
 45 86  1  0  0  0  0
 50 86  1  0  0  0  0
 51 86  1  0  0  0  0
 70 87  1  0  0  0  0
 71 87  1  0  0  0  0
 76 87  1  0  0  0  0
 77 87  1  0  0  0  0
 71 88  1  0  0  0  0
 72 88  1  0  0  0  0
 77 88  1  0  0  0  0
 78 88  1  0  0  0  0
 72 89  1  0  0  0  0
 73 89  1  0  0  0  0
 78 89  1  0  0  0  0
 79 89  1  0  0  0  0
 73 90  1  0  0  0  0
 74 90  1  0  0  0  0
 79 90  1  0  0  0  0
 80 90  1  0  0  0  0
 74 91  1  0  0  0  0
 75 91  1  0  0  0  0
 80 91  1  0  0  0  0
 81 91  1  0  0  0  0
 52 92  1  0  0  0  0
 53 92  1  0  0  0  0
 58 92  1  0  0  0  0
 59 92  1  0  0  0  0
 64 92  1  0  0  0  0
 65 92  1  0  0  0  0
 40 93  1  0  0  0  0
 52 94  1  0  0  0  0
 64 95  1  0  0  0  0
 76 96  1  0  0  0  0
 45 97  1  0  0  0  0
 57 98  1  0  0  0  0
 69 99  1  0  0  0  0
M  END
