 xtb: 6.7.1pre (5071a88)
          08312621153D

 99154  0     0  0            999 V2000
    6.2985    0.0681    4.8747 C   0  0  0  0  0  0  0  0  0  0  0  0
    5.1127   -0.3887    5.5983 N   0  0  0  0  0  0  0  0  0  0  0  0
    5.2213   -1.7097    6.2157 C   0  0  0  0  0  0  0  0  0  0  0  0
    3.8550    0.0758    5.1939 C   0  0  0  0  0  0  0  0  0  0  0  0
    3.7054    1.2405    4.4257 C   0  0  0  0  0  0  0  0  0  0  0  0
    2.4481    1.7223    4.0333 C   0  0  0  0  0  0  0  0  0  0  0  0
    1.2741    1.0697    4.4149 C   0  0  0  0  0  0  0  0  0  0  0  0
    0.0392    1.5607    3.9608 N   0  0  0  0  0  0  0  0  0  0  0  0
   -1.2301    1.0610    4.2944 C   0  0  0  0  0  0  0  0  0  0  0  0
   -2.3665    1.7055    3.8016 C   0  0  0  0  0  0  0  0  0  0  0  0
   -3.6522    1.2149    4.0716 C   0  0  0  0  0  0  0  0  0  0  0  0
   -3.8669    0.0489    4.8222 C   0  0  0  0  0  0  0  0  0  0  0  0
   -5.1543   -0.4245    5.1042 N   0  0  0  0  0  0  0  0  0  0  0  0
   -6.2682    0.0241    4.2697 C   0  0  0  0  0  0  0  0  0  0  0  0
   -5.3125   -1.7463    5.7089 C   0  0  0  0  0  0  0  0  0  0  0  0
   -2.7078   -0.5863    5.3034 C   0  0  0  0  0  0  0  0  0  0  0  0
   -1.4074   -0.1083    5.0401 C   0  0  0  0  0  0  0  0  0  0  0  0
   -0.0354   -1.0458    5.7005 S   0  0  0  0  0  0  0  0  0  0  0  0
    1.3871   -0.0986    5.1746 C   0  0  0  0  0  0  0  0  0  0  0  0
    2.6596   -0.5675    5.5617 C   0  0  0  0  0  0  0  0  0  0  0  0
    6.4466    1.1462    4.9974 H   0  0  0  0  0  0  0  0  0  0  0  0
    6.2279   -0.1755    3.8088 H   0  0  0  0  0  0  0  0  0  0  0  0
    7.2083   -0.4054    5.2607 H   0  0  0  0  0  0  0  0  0  0  0  0
    4.9014   -2.4957    5.5229 H   0  0  0  0  0  0  0  0  0  0  0  0
    4.6321   -1.7668    7.1374 H   0  0  0  0  0  0  0  0  0  0  0  0
    6.2549   -1.9262    6.5084 H   0  0  0  0  0  0  0  0  0  0  0  0
    4.5695    1.8164    4.1091 H   0  0  0  0  0  0  0  0  0  0  0  0
    2.4034    2.6216    3.4249 H   0  0  0  0  0  0  0  0  0  0  0  0
    0.0526    2.5107    3.6144 H   0  0  0  0  0  0  0  0  0  0  0  0
   -2.2699    2.6053    3.2000 H   0  0  0  0  0  0  0  0  0  0  0  0
   -4.4860    1.7848    3.6733 H   0  0  0  0  0  0  0  0  0  0  0  0
   -7.2076   -0.4559    4.5667 H   0  0  0  0  0  0  0  0  0  0  0  0
   -6.4351    1.1011    4.3772 H   0  0  0  0  0  0  0  0  0  0  0  0
   -6.0938   -0.2187    3.2156 H   0  0  0  0  0  0  0  0  0  0  0  0
   -4.8141   -1.7995    6.6829 H   0  0  0  0  0  0  0  0  0  0  0  0
   -6.3680   -1.9701    5.9011 H   0  0  0  0  0  0  0  0  0  0  0  0
   -4.9221   -2.5300    5.0503 H   0  0  0  0  0  0  0  0  0  0  0  0
   -2.7910   -1.4886    5.9018 H   0  0  0  0  0  0  0  0  0  0  0  0
    2.6912   -1.4695    6.1656 H   0  0  0  0  0  0  0  0  0  0  0  0
   -6.3511   -2.8545   -0.3396 B   0  0  0  0  0  0  0  0  0  0  0  0
   -3.8632   -3.4276    0.8712 B   0  0  0  0  0  0  0  0  0  0  0  0
   -1.0552   -4.1651    1.9793 B   0  0  0  0  0  0  0  0  0  0  0  0
    1.6853   -4.2318    1.3549 B   0  0  0  0  0  0  0  0  0  0  0  0
    2.9703   -3.6923    0.6219 B   0  0  0  0  0  0  0  0  0  0  0  0
    5.9076   -3.8486   -0.3800 B   0  0  0  0  0  0  0  0  0  0  0  0
   -4.7612   -2.3307   -0.4078 B   0  0  0  0  0  0  0  0  0  0  0  0
   -2.6199   -2.2111    0.8442 B   0  0  0  0  0  0  0  0  0  0  0  0
   -1.2327   -2.3911    1.7792 B   0  0  0  0  0  0  0  0  0  0  0  0
    0.2814   -3.1446    1.2586 B   0  0  0  0  0  0  0  0  0  0  0  0
    3.1280   -2.1353    0.0337 B   0  0  0  0  0  0  0  0  0  0  0  0
    5.2824   -2.5807   -1.1427 B   0  0  0  0  0  0  0  0  0  0  0  0
   -4.3827   -1.0545   -1.3461 B   0  0  0  0  0  0  0  0  0  0  0  0
   -3.1924   -1.2685   -0.2398 B   0  0  0  0  0  0  0  0  0  0  0  0
   -0.7667   -0.9151    2.1471 B   0  0  0  0  0  0  0  0  0  0  0  0
    0.4341   -1.5098    0.8825 B   0  0  0  0  0  0  0  0  0  0  0  0
    4.2603   -1.2719   -0.6057 B   0  0  0  0  0  0  0  0  0  0  0  0
    6.8452   -2.4756   -0.8065 B   0  0  0  0  0  0  0  0  0  0  0  0
   -5.0072   -0.6437   -2.8496 B   0  0  0  0  0  0  0  0  0  0  0  0
   -3.1952    0.1543   -0.9257 B   0  0  0  0  0  0  0  0  0  0  0  0
   -0.9469    0.6233    2.2104 B   0  0  0  0  0  0  0  0  0  0  0  0
    0.0016   -0.0204    0.9084 B   0  0  0  0  0  0  0  0  0  0  0  0
    4.8754    0.2242   -0.5476 B   0  0  0  0  0  0  0  0  0  0  0  0
    5.8786   -1.0664   -1.1306 B   0  0  0  0  0  0  0  0  0  0  0  0
   -5.7672    0.8535   -2.9176 B   0  0  0  0  0  0  0  0  0  0  0  0
   -2.8971    1.6282   -0.7083 B   0  0  0  0  0  0  0  0  0  0  0  0
   -1.2399    2.1332    2.0889 B   0  0  0  0  0  0  0  0  0  0  0  0
    0.1883    1.5499    1.0540 B   0  0  0  0  0  0  0  0  0  0  0  0
    4.2581    1.5841    0.0647 B   0  0  0  0  0  0  0  0  0  0  0  0
    6.3075    0.4397   -1.6258 B   0  0  0  0  0  0  0  0  0  0  0  0
   -5.7341    1.7554   -1.4938 B   0  0  0  0  0  0  0  0  0  0  0  0
   -3.3469    2.9740   -0.1746 B   0  0  0  0  0  0  0  0  0  0  0  0
   -1.6646    3.6160    1.7973 B   0  0  0  0  0  0  0  0  0  0  0  0
   -0.0590    3.1640    1.3235 B   0  0  0  0  0  0  0  0  0  0  0  0
    2.9656    2.2589    0.6844 B   0  0  0  0  0  0  0  0  0  0  0  0
    5.7919    1.6725   -0.6985 B   0  0  0  0  0  0  0  0  0  0  0  0
   -6.6389    2.8000   -0.8422 B   0  0  0  0  0  0  0  0  0  0  0  0
   -4.4746    3.8873    0.5879 B   0  0  0  0  0  0  0  0  0  0  0  0
   -1.7771    5.1752    1.2154 B   0  0  0  0  0  0  0  0  0  0  0  0
    1.1754    4.4066    1.3290 B   0  0  0  0  0  0  0  0  0  0  0  0
    2.5938    3.9229    0.8796 B   0  0  0  0  0  0  0  0  0  0  0  0
    5.3509    2.9860   -0.0541 B   0  0  0  0  0  0  0  0  0  0  0  0
   -5.3190   -3.6348    0.4165 B   0  0  0  0  0  0  0  0  0  0  0  0
   -2.4877   -3.6329    1.6055 B   0  0  0  0  0  0  0  0  0  0  0  0
    0.3596   -4.7213    1.9063 B   0  0  0  0  0  0  0  0  0  0  0  0
    1.7215   -2.4162    0.7345 B   0  0  0  0  0  0  0  0  0  0  0  0
    4.3387   -3.4800   -0.0729 B   0  0  0  0  0  0  0  0  0  0  0  0
   -5.0953    2.8472   -0.3735 B   0  0  0  0  0  0  0  0  0  0  0  0
   -3.0345    4.3187    0.9326 B   0  0  0  0  0  0  0  0  0  0  0  0
   -0.2869    4.8951    1.4426 B   0  0  0  0  0  0  0  0  0  0  0  0
    1.4616    2.5482    0.9924 B   0  0  0  0  0  0  0  0  0  0  0  0
    4.0784    3.6198    0.5106 B   0  0  0  0  0  0  0  0  0  0  0  0
   -4.5957    0.5913   -1.8415 B   0  0  0  0  0  0  0  0  0  0  0  0
   -7.3684   -2.5027   -0.8103 H   0  0  0  0  0  0  0  0  0  0  0  0
   -4.9591   -1.3760   -3.7739 H   0  0  0  0  0  0  0  0  0  0  0  0
   -6.3246    1.2608   -3.8715 H   0  0  0  0  0  0  0  0  0  0  0  0
   -7.6134    3.4017   -0.5976 H   0  0  0  0  0  0  0  0  0  0  0  0
    6.3612   -4.9354   -0.3602 H   0  0  0  0  0  0  0  0  0  0  0  0
    8.0163   -2.4682   -0.9061 H   0  0  0  0  0  0  0  0  0  0  0  0
    6.9392    0.6146   -2.6128 H   0  0  0  0  0  0  0  0  0  0  0  0
  1  2  1  0  0  0  0
  2  3  1  0  0  0  0
  2  4  1  0  0  0  0
  4  5  4  0  0  0  0
  5  6  4  0  0  0  0
  6  7  4  0  0  0  0
  7  8  1  0  0  0  0
  8  9  1  0  0  0  0
  9 10  4  0  0  0  0
 10 11  4  0  0  0  0
 11 12  4  0  0  0  0
 12 13  1  0  0  0  0
 13 14  1  0  0  0  0
 13 15  1  0  0  0  0
 12 16  4  0  0  0  0
  9 17  4  0  0  0  0
 16 17  4  0  0  0  0
 17 18  1  0  0  0  0
  7 19  4  0  0  0  0
 18 19  1  0  0  0  0
  4 20  4  0  0  0  0
 19 20  4  0  0  0  0
  1 21  1  0  0  0  0
  1 22  1  0  0  0  0
  1 23  1  0  0  0  0
  3 24  1  0  0  0  0
  3 25  1  0  0  0  0
  3 26  1  0  0  0  0
  5 27  1  0  0  0  0
  6 28  1  0  0  0  0
  8 29  1  0  0  0  0
 10 30  1  0  0  0  0
 11 31  1  0  0  0  0
 14 32  1  0  0  0  0
 14 33  1  0  0  0  0
 14 34  1  0  0  0  0
 15 35  1  0  0  0  0
 15 36  1  0  0  0  0
 15 37  1  0  0  0  0
 16 38  1  0  0  0  0
 20 39  1  0  0  0  0
 43 44  1  0  0  0  0
 40 46  1  0  0  0  0
 41 46  1  0  0  0  0
 41 47  1  0  0  0  0
 42 48  1  0  0  0  0
 47 48  1  0  0  0  0
 42 49  1  0  0  0  0
 43 49  1  0  0  0  0
 48 49  1  0  0  0  0
 44 50  1  0  0  0  0
 45 51  1  0  0  0  0
 46 52  1  0  0  0  0
 46 53  1  0  0  0  0
 47 53  1  0  0  0  0
 52 53  1  0  0  0  0
 48 54  1  0  0  0  0
 49 55  1  0  0  0  0
 54 55  1  0  0  0  0
 50 56  1  0  0  0  0
 51 56  1  0  0  0  0
 45 57  1  0  0  0  0
 51 57  1  0  0  0  0
 52 58  1  0  0  0  0
 52 59  1  0  0  0  0
 53 59  1  0  0  0  0
 54 60  1  0  0  0  0
 54 61  1  0  0  0  0
 55 61  1  0  0  0  0
 60 61  1  0  0  0  0
 56 62  1  0  0  0  0
 51 63  1  0  0  0  0
 56 63  1  0  0  0  0
 57 63  1  0  0  0  0
 62 63  1  0  0  0  0
 58 64  1  0  0  0  0
 59 65  1  0  0  0  0
 60 66  1  0  0  0  0
 60 67  1  0  0  0  0
 61 67  1  0  0  0  0
 66 67  1  0  0  0  0
 62 68  1  0  0  0  0
 62 69  1  0  0  0  0
 63 69  1  0  0  0  0
 64 70  1  0  0  0  0
 65 71  2  0  0  0  0
 66 72  1  0  0  0  0
 66 73  1  0  0  0  0
 67 73  1  0  0  0  0
 72 73  1  0  0  0  0
 68 74  1  0  0  0  0
 62 75  1  0  0  0  0
 68 75  1  0  0  0  0
 69 75  1  0  0  0  0
 70 76  1  0  0  0  0
 71 77  1  0  0  0  0
 72 78  1  0  0  0  0
 73 79  1  0  0  0  0
 74 80  1  0  0  0  0
 79 80  1  0  0  0  0
 68 81  1  0  0  0  0
 75 81  1  0  0  0  0
 40 82  2  0  0  0  0
 41 82  1  0  0  0  0
 46 82  1  0  0  0  0
 41 83  1  0  0  0  0
 42 83  1  0  0  0  0
 47 83  1  0  0  0  0
 48 83  1  0  0  0  0
 42 84  1  0  0  0  0
 43 84  1  0  0  0  0
 49 84  1  0  0  0  0
 43 85  1  0  0  0  0
 44 85  1  0  0  0  0
 49 85  1  0  0  0  0
 50 85  1  0  0  0  0
 55 85  1  0  0  0  0
 44 86  1  0  0  0  0
 45 86  1  0  0  0  0
 50 86  1  0  0  0  0
 51 86  1  0  0  0  0
 70 87  1  0  0  0  0
 71 87  1  0  0  0  0
 76 87  1  0  0  0  0
 77 87  1  0  0  0  0
 71 88  1  0  0  0  0
 72 88  1  0  0  0  0
 77 88  1  0  0  0  0
 78 88  1  0  0  0  0
 72 89  1  0  0  0  0
 73 89  1  0  0  0  0
 78 89  1  0  0  0  0
 79 89  1  0  0  0  0
 67 90  1  0  0  0  0
 73 90  1  0  0  0  0
 74 90  1  0  0  0  0
 79 90  1  0  0  0  0
 80 90  1  0  0  0  0
 68 91  1  0  0  0  0
 74 91  1  0  0  0  0
 80 91  1  0  0  0  0
 81 91  1  0  0  0  0
 52 92  1  0  0  0  0
 58 92  1  0  0  0  0
 59 92  1  0  0  0  0
 64 92  1  0  0  0  0
 70 92  1  0  0  0  0
 40 93  1  0  0  0  0
 58 94  1  0  0  0  0
 64 95  1  0  0  0  0
 76 96  1  0  0  0  0
 45 97  1  0  0  0  0
 57 98  1  0  0  0  0
 69 99  1  0  0  0  0
M  END
