 xtb: 6.7.1pre (5071a88)
          09022615133D

 93129  0     0  0            999 V2000
    4.7670   -2.7974   10.4318 C   0  0  0  0  0  0  0  0  0  0  0  0
    3.6920   -2.0870   10.7138 C   0  0  0  0  0  0  0  0  0  0  0  0
    3.6747   -0.5947   10.8633 C   0  0  0  0  0  0  0  0  0  0  0  0
    2.7410    0.0064    9.8460 C   0  0  0  0  0  0  0  0  0  0  0  0
    3.1469    0.1605    8.5280 C   0  0  0  0  0  0  0  0  0  0  0  0
    2.2820    0.6943    7.5924 C   0  0  0  0  0  0  0  0  0  0  0  0
    0.9992    1.0799    7.9533 C   0  0  0  0  0  0  0  0  0  0  0  0
    0.1451    1.6272    7.0278 O   0  0  0  0  0  0  0  0  0  0  0  0
    0.5576    0.9173    9.2715 C   0  0  0  0  0  0  0  0  0  0  0  0
   -0.8066    1.2534    9.7316 C   0  0  0  0  0  0  0  0  0  0  0  0
   -1.5036    0.2958   10.4644 C   0  0  0  0  0  0  0  0  0  0  0  0
   -2.7527    0.5451   11.0067 C   0  0  0  0  0  0  0  0  0  0  0  0
   -3.4924   -0.5451   11.7374 C   0  0  0  0  0  0  0  0  0  0  0  0
   -4.1588   -1.4482   10.7432 C   0  0  0  0  0  0  0  0  0  0  0  0
   -3.9587   -2.7494   10.6596 C   0  0  0  0  0  0  0  0  0  0  0  0
   -3.3191    1.7991   10.8194 C   0  0  0  0  0  0  0  0  0  0  0  0
   -2.6538    2.7630   10.0913 C   0  0  0  0  0  0  0  0  0  0  0  0
   -1.4074    2.5029    9.5301 C   0  0  0  0  0  0  0  0  0  0  0  0
   -0.8130    3.5157    8.8474 O   0  0  0  0  0  0  0  0  0  0  0  0
    1.4512    0.3758   10.1915 C   0  0  0  0  0  0  0  0  0  0  0  0
    4.7326   -3.8680   10.3258 H   0  0  0  0  0  0  0  0  0  0  0  0
    5.7327   -2.3365   10.3037 H   0  0  0  0  0  0  0  0  0  0  0  0
    2.7310   -2.5693   10.8355 H   0  0  0  0  0  0  0  0  0  0  0  0
    3.3303   -0.3378   11.8681 H   0  0  0  0  0  0  0  0  0  0  0  0
    4.6837   -0.2006   10.7281 H   0  0  0  0  0  0  0  0  0  0  0  0
    4.1420   -0.1347    8.2320 H   0  0  0  0  0  0  0  0  0  0  0  0
    2.6025    0.8151    6.5661 H   0  0  0  0  0  0  0  0  0  0  0  0
    0.5574    1.6283    6.1573 H   0  0  0  0  0  0  0  0  0  0  0  0
   -1.0571   -0.6792   10.6002 H   0  0  0  0  0  0  0  0  0  0  0  0
   -2.8054   -1.1231   12.3586 H   0  0  0  0  0  0  0  0  0  0  0  0
   -4.2540   -0.0984   12.3826 H   0  0  0  0  0  0  0  0  0  0  0  0
   -4.8273   -0.9502   10.0534 H   0  0  0  0  0  0  0  0  0  0  0  0
   -4.4553   -3.3563    9.9223 H   0  0  0  0  0  0  0  0  0  0  0  0
   -3.2960   -3.2665   11.3343 H   0  0  0  0  0  0  0  0  0  0  0  0
   -4.2880    2.0228   11.2418 H   0  0  0  0  0  0  0  0  0  0  0  0
   -3.0827    3.7404    9.9385 H   0  0  0  0  0  0  0  0  0  0  0  0
   -0.1534    3.1447    8.2489 H   0  0  0  0  0  0  0  0  0  0  0  0
    1.1224    0.2623   11.2141 H   0  0  0  0  0  0  0  0  0  0  0  0
   -4.8040   -2.6131    0.2444 B   0  0  0  0  0  0  0  0  0  0  0  0
   -4.5645   -1.3437   -0.6855 B   0  0  0  0  0  0  0  0  0  0  0  0
   -4.4433   -0.2008   -1.8893 B   0  0  0  0  0  0  0  0  0  0  0  0
   -3.4031   -2.6570   -0.5491 B   0  0  0  0  0  0  0  0  0  0  0  0
   -3.0185    0.2002   -1.3897 B   0  0  0  0  0  0  0  0  0  0  0  0
   -4.3764    0.3456   -0.1850 B   0  0  0  0  0  0  0  0  0  0  0  0
   -5.0228    1.3914    0.8377 B   0  0  0  0  0  0  0  0  0  0  0  0
   -4.6070    2.9714    1.0310 B   0  0  0  0  0  0  0  0  0  0  0  0
   -2.7965    0.4978    0.2237 B   0  0  0  0  0  0  0  0  0  0  0  0
   -3.2111    3.2097    1.8367 B   0  0  0  0  0  0  0  0  0  0  0  0
   -2.1677   -3.7731   -0.6180 B   0  0  0  0  0  0  0  0  0  0  0  0
   -1.8756   -2.2428   -0.9494 B   0  0  0  0  0  0  0  0  0  0  0  0
   -1.6881   -0.6106   -0.8292 B   0  0  0  0  0  0  0  0  0  0  0  0
   -0.5866   -3.2187   -0.8419 B   0  0  0  0  0  0  0  0  0  0  0  0
   -0.2102   -0.1559   -0.3015 B   0  0  0  0  0  0  0  0  0  0  0  0
   -1.3799    0.0163    0.8699 B   0  0  0  0  0  0  0  0  0  0  0  0
   -1.7625    1.6425    0.7950 B   0  0  0  0  0  0  0  0  0  0  0  0
   -1.8909    3.2160    0.9259 B   0  0  0  0  0  0  0  0  0  0  0  0
   -0.1994    1.0166    1.0917 B   0  0  0  0  0  0  0  0  0  0  0  0
   -0.7498    4.3320    0.6013 B   0  0  0  0  0  0  0  0  0  0  0  0
    0.8220   -4.1152   -0.7131 B   0  0  0  0  0  0  0  0  0  0  0  0
    0.9229   -2.5085   -0.7491 B   0  0  0  0  0  0  0  0  0  0  0  0
    1.2224   -0.9536   -0.5942 B   0  0  0  0  0  0  0  0  0  0  0  0
    2.1945   -3.3973   -0.1454 B   0  0  0  0  0  0  0  0  0  0  0  0
    2.6298   -0.2008   -0.3061 B   0  0  0  0  0  0  0  0  0  0  0  0
    1.2441    0.5452    0.1375 B   0  0  0  0  0  0  0  0  0  0  0  0
    1.1369    1.9854    1.0570 B   0  0  0  0  0  0  0  0  0  0  0  0
    0.5400    3.4232    0.6477 B   0  0  0  0  0  0  0  0  0  0  0  0
    2.4621    1.6707    0.0881 B   0  0  0  0  0  0  0  0  0  0  0  0
    1.2019    3.0148   -0.8333 B   0  0  0  0  0  0  0  0  0  0  0  0
    3.1976   -3.8140    1.1518 B   0  0  0  0  0  0  0  0  0  0  0  0
    3.6235   -2.6544    0.0777 B   0  0  0  0  0  0  0  0  0  0  0  0
    4.0318   -1.1295   -0.2454 B   0  0  0  0  0  0  0  0  0  0  0  0
    4.3970   -2.7973    1.4508 B   0  0  0  0  0  0  0  0  0  0  0  0
    5.3651   -0.2546   -0.7226 B   0  0  0  0  0  0  0  0  0  0  0  0
    4.1135    0.5265   -0.0428 B   0  0  0  0  0  0  0  0  0  0  0  0
    4.0213    2.3163   -0.0641 B   0  0  0  0  0  0  0  0  0  0  0  0
    2.8095    3.0954   -0.9166 B   0  0  0  0  0  0  0  0  0  0  0  0
    5.4245    1.4558   -0.2405 B   0  0  0  0  0  0  0  0  0  0  0  0
    4.2821    3.5451   -1.0499 B   0  0  0  0  0  0  0  0  0  0  0  0
   -5.2122   -3.1303    1.2153 H   0  0  0  0  0  0  0  0  0  0  0  0
   -5.7226   -2.0584   -0.4665 H   0  0  0  0  0  0  0  0  0  0  0  0
   -5.2356   -0.0456   -2.7504 H   0  0  0  0  0  0  0  0  0  0  0  0
   -5.7709    0.9878    1.6709 H   0  0  0  0  0  0  0  0  0  0  0  0
   -5.3437    3.8311    0.6972 H   0  0  0  0  0  0  0  0  0  0  0  0
   -3.2328    3.2076    3.0178 H   0  0  0  0  0  0  0  0  0  0  0  0
   -2.3703   -4.9237   -0.5180 H   0  0  0  0  0  0  0  0  0  0  0  0
   -0.8982    5.4609    0.2962 H   0  0  0  0  0  0  0  0  0  0  0  0
    0.8181   -5.2577   -0.9717 H   0  0  0  0  0  0  0  0  0  0  0  0
    0.5325    2.6943   -1.7577 H   0  0  0  0  0  0  0  0  0  0  0  0
    2.9342   -4.7625    1.7875 H   0  0  0  0  0  0  0  0  0  0  0  0
    5.2370   -2.4585    2.1871 H   0  0  0  0  0  0  0  0  0  0  0  0
    6.3833   -0.6593   -1.1356 H   0  0  0  0  0  0  0  0  0  0  0  0
    6.5099    1.8402   -0.0165 H   0  0  0  0  0  0  0  0  0  0  0  0
    5.1183    4.2441   -1.4701 H   0  0  0  0  0  0  0  0  0  0  0  0
  1  2  2  0  0  0  0
  2  3  1  0  0  0  0
  3  4  1  0  0  0  0
  4  5  4  0  0  0  0
  5  6  4  0  0  0  0
  6  7  4  0  0  0  0
  7  8  1  0  0  0  0
  7  9  4  0  0  0  0
  9 10  1  0  0  0  0
 10 11  4  0  0  0  0
 11 12  4  0  0  0  0
 12 13  1  0  0  0  0
 13 14  1  0  0  0  0
 14 15  2  0  0  0  0
 12 16  4  0  0  0  0
 16 17  4  0  0  0  0
 10 18  4  0  0  0  0
 17 18  4  0  0  0  0
 18 19  1  0  0  0  0
  4 20  4  0  0  0  0
  9 20  4  0  0  0  0
  1 21  1  0  0  0  0
  1 22  1  0  0  0  0
  2 23  1  0  0  0  0
  3 24  1  0  0  0  0
  3 25  1  0  0  0  0
  5 26  1  0  0  0  0
  6 27  1  0  0  0  0
  8 28  1  0  0  0  0
 11 29  1  0  0  0  0
 13 30  1  0  0  0  0
 13 31  1  0  0  0  0
 14 32  1  0  0  0  0
 15 33  1  0  0  0  0
 15 34  1  0  0  0  0
 16 35  1  0  0  0  0
 17 36  1  0  0  0  0
 19 37  1  0  0  0  0
 20 38  1  0  0  0  0
 39 40  1  0  0  0  0
 40 41  1  0  0  0  0
 39 42  1  0  0  0  0
 40 42  1  0  0  0  0
 41 43  1  0  0  0  0
 40 44  1  0  0  0  0
 41 44  1  0  0  0  0
 43 44  1  0  0  0  0
 44 45  1  0  0  0  0
 45 46  1  0  0  0  0
 43 47  1  0  0  0  0
 44 47  1  0  0  0  0
 46 48  1  0  0  0  0
 42 49  1  0  0  0  0
 42 50  1  0  0  0  0
 49 50  1  0  0  0  0
 43 51  1  0  0  0  0
 47 51  1  0  0  0  0
 50 51  1  0  0  0  0
 49 52  1  0  0  0  0
 50 52  1  0  0  0  0
 51 53  1  0  0  0  0
 47 54  1  0  0  0  0
 51 54  1  0  0  0  0
 53 54  1  0  0  0  0
 47 55  1  0  0  0  0
 54 55  1  0  0  0  0
 48 56  1  0  0  0  0
 55 56  1  0  0  0  0
 53 57  1  0  0  0  0
 54 57  1  0  0  0  0
 55 57  1  0  0  0  0
 56 58  1  0  0  0  0
 52 59  1  0  0  0  0
 52 60  1  0  0  0  0
 59 60  1  0  0  0  0
 53 61  1  0  0  0  0
 60 61  1  0  0  0  0
 59 62  1  0  0  0  0
 60 62  1  0  0  0  0
 61 63  1  0  0  0  0
 53 64  1  0  0  0  0
 57 64  1  0  0  0  0
 61 64  1  0  0  0  0
 63 64  1  0  0  0  0
 57 65  1  0  0  0  0
 64 65  1  0  0  0  0
 58 66  1  0  0  0  0
 65 66  1  0  0  0  0
 63 67  1  0  0  0  0
 64 67  1  0  0  0  0
 65 67  1  0  0  0  0
 66 68  1  0  0  0  0
 62 69  1  0  0  0  0
 62 70  1  0  0  0  0
 69 70  1  0  0  0  0
 63 71  1  0  0  0  0
 70 71  1  0  0  0  0
 69 72  1  0  0  0  0
 70 72  1  0  0  0  0
 71 73  1  0  0  0  0
 63 74  1  0  0  0  0
 71 74  1  0  0  0  0
 73 74  1  0  0  0  0
 67 75  1  0  0  0  0
 74 75  1  0  0  0  0
 67 76  1  0  0  0  0
 68 76  1  0  0  0  0
 75 76  1  0  0  0  0
 73 77  1  0  0  0  0
 74 77  1  0  0  0  0
 75 77  1  0  0  0  0
 75 78  1  0  0  0  0
 76 78  1  0  0  0  0
 39 79  1  0  0  0  0
 39 80  1  0  0  0  0
 40 80  1  0  0  0  0
 41 81  1  0  0  0  0
 45 82  1  0  0  0  0
 46 83  1  0  0  0  0
 48 84  1  0  0  0  0
 49 85  1  0  0  0  0
 58 86  1  0  0  0  0
 59 87  1  0  0  0  0
 68 88  1  0  0  0  0
 69 89  1  0  0  0  0
 72 90  1  0  0  0  0
 73 91  1  0  0  0  0
 77 92  1  0  0  0  0
 78 93  1  0  0  0  0
M  END
