 xtb: 6.7.1pre (5071a88)
          08312620233D

 98131  0     0  0            999 V2000
   -4.8639    2.7822    4.0003 C   0  0  0  0  0  0  0  0  0  0  0  0
   -3.7710    2.0558    4.2698 C   0  0  0  0  0  0  0  0  0  0  0  0
   -3.7499    0.5561    4.3612 C   0  0  0  0  0  0  0  0  0  0  0  0
   -2.7994   -0.0635    3.3639 C   0  0  0  0  0  0  0  0  0  0  0  0
   -3.1916   -0.2554    2.0353 C   0  0  0  0  0  0  0  0  0  0  0  0
   -2.3111   -0.8243    1.1176 C   0  0  0  0  0  0  0  0  0  0  0  0
   -1.0265   -1.1928    1.5241 C   0  0  0  0  0  0  0  0  0  0  0  0
   -0.1916   -1.7871    0.6122 O   0  0  0  0  0  0  0  0  0  0  0  0
   -0.5800   -0.9999    2.8427 C   0  0  0  0  0  0  0  0  0  0  0  0
    0.7910   -1.3349    3.3048 C   0  0  0  0  0  0  0  0  0  0  0  0
    1.5471   -0.3558    3.9850 C   0  0  0  0  0  0  0  0  0  0  0  0
    2.8257   -0.6233    4.5078 C   0  0  0  0  0  0  0  0  0  0  0  0
    3.6013    0.4605    5.2181 C   0  0  0  0  0  0  0  0  0  0  0  0
    4.2596    1.4125    4.2598 C   0  0  0  0  0  0  0  0  0  0  0  0
    4.0344    2.7327    4.2294 C   0  0  0  0  0  0  0  0  0  0  0  0
    3.3715   -1.8993    4.3409 C   0  0  0  0  0  0  0  0  0  0  0  0
    2.6541   -2.8826    3.6641 C   0  0  0  0  0  0  0  0  0  0  0  0
    1.3911   -2.5967    3.1443 C   0  0  0  0  0  0  0  0  0  0  0  0
    0.7872   -3.6235    2.4678 O   0  0  0  0  0  0  0  0  0  0  0  0
   -1.4990   -0.4323    3.7499 C   0  0  0  0  0  0  0  0  0  0  0  0
   -4.8107    3.8656    3.9508 H   0  0  0  0  0  0  0  0  0  0  0  0
   -5.8294    2.3191    3.8227 H   0  0  0  0  0  0  0  0  0  0  0  0
   -2.8273    2.5693    4.4433 H   0  0  0  0  0  0  0  0  0  0  0  0
   -3.4579    0.2692    5.3791 H   0  0  0  0  0  0  0  0  0  0  0  0
   -4.7516    0.1339    4.2096 H   0  0  0  0  0  0  0  0  0  0  0  0
   -4.1897    0.0335    1.7128 H   0  0  0  0  0  0  0  0  0  0  0  0
   -2.6455   -0.9834    0.0969 H   0  0  0  0  0  0  0  0  0  0  0  0
   -0.5247   -1.5917   -0.2810 H   0  0  0  0  0  0  0  0  0  0  0  0
    1.1354    0.6458    4.1070 H   0  0  0  0  0  0  0  0  0  0  0  0
    2.9271    0.9888    5.9045 H   0  0  0  0  0  0  0  0  0  0  0  0
    4.3756    0.0086    5.8506 H   0  0  0  0  0  0  0  0  0  0  0  0
    4.9657    0.9819    3.5522 H   0  0  0  0  0  0  0  0  0  0  0  0
    4.5442    3.3648    3.5086 H   0  0  0  0  0  0  0  0  0  0  0  0
    3.3399    3.2104    4.9131 H   0  0  0  0  0  0  0  0  0  0  0  0
    4.3593   -2.1351    4.7289 H   0  0  0  0  0  0  0  0  0  0  0  0
    3.0809   -3.8723    3.5271 H   0  0  0  0  0  0  0  0  0  0  0  0
    0.2267   -3.2000    1.7887 H   0  0  0  0  0  0  0  0  0  0  0  0
   -1.1966   -0.2813    4.7860 H   0  0  0  0  0  0  0  0  0  0  0  0
   -7.5000   -4.5000    0.0000 B   0  0  0  0  0  0  0  0  0  0  0  0
   -4.5000   -4.5000    0.0000 B   0  0  0  0  0  0  0  0  0  0  0  0
   -1.5000   -4.5000    0.0000 B   0  0  0  0  0  0  0  0  0  0  0  0
    1.5000   -4.5000    0.0000 B   0  0  0  0  0  0  0  0  0  0  0  0
    4.5000   -4.5000    0.0000 B   0  0  0  0  0  0  0  0  0  0  0  0
    7.5000   -4.5000    0.0000 B   0  0  0  0  0  0  0  0  0  0  0  0
   -7.5000   -3.0000    0.0000 B   0  0  0  0  0  0  0  0  0  0  0  0
   -4.5000   -3.0000    0.0000 B   0  0  0  0  0  0  0  0  0  0  0  0
   -1.5000   -3.0000    0.0000 B   0  0  0  0  0  0  0  0  0  0  0  0
    1.5000   -3.0000    0.0000 B   0  0  0  0  0  0  0  0  0  0  0  0
    4.5000   -3.0000    0.0000 B   0  0  0  0  0  0  0  0  0  0  0  0
    7.5000   -3.0000    0.0000 B   0  0  0  0  0  0  0  0  0  0  0  0
   -7.5000   -1.5000    0.0000 B   0  0  0  0  0  0  0  0  0  0  0  0
   -4.5000   -1.5000    0.0000 B   0  0  0  0  0  0  0  0  0  0  0  0
   -1.5000   -1.5000    0.0000 B   0  0  0  0  0  0  0  0  0  0  0  0
    1.5000   -1.5000    0.0000 B   0  0  0  0  0  0  0  0  0  0  0  0
    4.5000   -1.5000    0.0000 B   0  0  0  0  0  0  0  0  0  0  0  0
    7.5000   -1.5000    0.0000 B   0  0  0  0  0  0  0  0  0  0  0  0
   -7.5000    0.0000    0.0000 B   0  0  0  0  0  0  0  0  0  0  0  0
   -4.5000    0.0000    0.0000 B   0  0  0  0  0  0  0  0  0  0  0  0
   -1.5000    0.0000    0.0000 B   0  0  0  0  0  0  0  0  0  0  0  0
    1.5000    0.0000    0.0000 B   0  0  0  0  0  0  0  0  0  0  0  0
    4.5000    0.0000    0.0000 B   0  0  0  0  0  0  0  0  0  0  0  0
    7.5000    0.0000    0.0000 B   0  0  0  0  0  0  0  0  0  0  0  0
   -7.5000    1.5000    0.0000 B   0  0  0  0  0  0  0  0  0  0  0  0
   -4.5000    1.5000    0.0000 B   0  0  0  0  0  0  0  0  0  0  0  0
   -1.5000    1.5000    0.0000 B   0  0  0  0  0  0  0  0  0  0  0  0
    1.5000    1.5000    0.0000 B   0  0  0  0  0  0  0  0  0  0  0  0
    4.5000    1.5000    0.0000 B   0  0  0  0  0  0  0  0  0  0  0  0
    7.5000    1.5000    0.0000 B   0  0  0  0  0  0  0  0  0  0  0  0
   -7.5000    3.0000    0.0000 B   0  0  0  0  0  0  0  0  0  0  0  0
   -4.5000    3.0000    0.0000 B   0  0  0  0  0  0  0  0  0  0  0  0
   -1.5000    3.0000    0.0000 B   0  0  0  0  0  0  0  0  0  0  0  0
    1.5000    3.0000    0.0000 B   0  0  0  0  0  0  0  0  0  0  0  0
    4.5000    3.0000    0.0000 B   0  0  0  0  0  0  0  0  0  0  0  0
    7.5000    3.0000    0.0000 B   0  0  0  0  0  0  0  0  0  0  0  0
   -7.5000    4.5000    0.0000 B   0  0  0  0  0  0  0  0  0  0  0  0
   -4.5000    4.5000    0.0000 B   0  0  0  0  0  0  0  0  0  0  0  0
   -1.5000    4.5000    0.0000 B   0  0  0  0  0  0  0  0  0  0  0  0
    1.5000    4.5000    0.0000 B   0  0  0  0  0  0  0  0  0  0  0  0
    4.5000    4.5000    0.0000 B   0  0  0  0  0  0  0  0  0  0  0  0
    7.5000    4.5000    0.0000 B   0  0  0  0  0  0  0  0  0  0  0  0
   -6.0000   -3.7500    0.0000 B   0  0  0  0  0  0  0  0  0  0  0  0
   -3.0000   -3.7500    0.0000 B   0  0  0  0  0  0  0  0  0  0  0  0
    0.0000   -3.7500    0.0000 B   0  0  0  0  0  0  0  0  0  0  0  0
    3.0000   -3.7500    0.0000 B   0  0  0  0  0  0  0  0  0  0  0  0
    6.0000   -3.7500    0.0000 B   0  0  0  0  0  0  0  0  0  0  0  0
   -6.0000    3.7500    0.0000 B   0  0  0  0  0  0  0  0  0  0  0  0
   -3.0000    3.7500    0.0000 B   0  0  0  0  0  0  0  0  0  0  0  0
    0.0000    3.7500    0.0000 B   0  0  0  0  0  0  0  0  0  0  0  0
    3.0000    3.7500    0.0000 B   0  0  0  0  0  0  0  0  0  0  0  0
    6.0000    3.7500    0.0000 B   0  0  0  0  0  0  0  0  0  0  0  0
   -6.0000    0.0000    0.0000 B   0  0  0  0  0  0  0  0  0  0  0  0
   -8.6000   -4.5000    0.0000 H   0  0  0  0  0  0  0  0  0  0  0  0
   -8.6000   -1.5000    0.0000 H   0  0  0  0  0  0  0  0  0  0  0  0
   -8.6000    1.5000    0.0000 H   0  0  0  0  0  0  0  0  0  0  0  0
   -8.6000    4.5000    0.0000 H   0  0  0  0  0  0  0  0  0  0  0  0
    8.6000   -4.5000    0.0000 H   0  0  0  0  0  0  0  0  0  0  0  0
    8.6000   -1.5000    0.0000 H   0  0  0  0  0  0  0  0  0  0  0  0
    8.6000    1.5000    0.0000 H   0  0  0  0  0  0  0  0  0  0  0  0
  1  2  2  0  0  0  0
  2  3  1  0  0  0  0
  3  4  1  0  0  0  0
  4  5  4  0  0  0  0
  5  6  1  0  0  0  0
  6  7  1  0  0  0  0
  7  8  1  0  0  0  0
  7  9  4  0  0  0  0
  9 10  1  0  0  0  0
 10 11  4  0  0  0  0
 11 12  4  0  0  0  0
 12 13  1  0  0  0  0
 13 14  1  0  0  0  0
 14 15  2  0  0  0  0
 12 16  4  0  0  0  0
 16 17  4  0  0  0  0
 10 18  4  0  0  0  0
 17 18  4  0  0  0  0
 18 19  1  0  0  0  0
  4 20  4  0  0  0  0
  9 20  4  0  0  0  0
  1 21  1  0  0  0  0
  1 22  1  0  0  0  0
  2 23  1  0  0  0  0
  3 24  1  0  0  0  0
  3 25  1  0  0  0  0
  5 26  1  0  0  0  0
  6 27  1  0  0  0  0
  8 28  1  0  0  0  0
 11 29  1  0  0  0  0
 13 30  1  0  0  0  0
 13 31  1  0  0  0  0
 14 32  1  0  0  0  0
 15 33  1  0  0  0  0
 15 34  1  0  0  0  0
 16 35  1  0  0  0  0
 17 36  1  0  0  0  0
 19 37  1  0  0  0  0
 20 38  1  0  0  0  0
 39 45  1  0  0  0  0
 40 46  1  0  0  0  0
 41 47  1  0  0  0  0
 42 48  1  0  0  0  0
 43 49  1  0  0  0  0
 44 50  1  0  0  0  0
 45 51  1  0  0  0  0
 46 52  1  0  0  0  0
  6 53  1  0  0  0  0
  8 53  1  0  0  0  0
 47 53  1  0  0  0  0
 48 54  1  0  0  0  0
 49 55  1  0  0  0  0
 50 56  1  0  0  0  0
 51 57  1  0  0  0  0
 52 58  1  0  0  0  0
  6 59  1  0  0  0  0
 53 59  1  0  0  0  0
 54 60  2  0  0  0  0
 55 61  2  0  0  0  0
 56 62  1  0  0  0  0
 57 63  1  0  0  0  0
 58 64  1  0  0  0  0
 59 65  2  0  0  0  0
 60 66  2  0  0  0  0
 61 67  2  0  0  0  0
 62 68  2  0  0  0  0
 63 69  1  0  0  0  0
 64 70  1  0  0  0  0
 65 71  1  0  0  0  0
 66 72  1  0  0  0  0
 67 73  1  0  0  0  0
 68 74  1  0  0  0  0
 69 75  1  0  0  0  0
 70 76  1  0  0  0  0
 71 77  1  0  0  0  0
 72 78  1  0  0  0  0
 73 79  1  0  0  0  0
 74 80  2  0  0  0  0
 39 81  1  0  0  0  0
 40 81  1  0  0  0  0
 45 81  1  0  0  0  0
 46 81  1  0  0  0  0
 40 82  1  0  0  0  0
 41 82  1  0  0  0  0
 46 82  1  0  0  0  0
 47 82  1  0  0  0  0
 41 83  1  0  0  0  0
 42 83  1  0  0  0  0
 47 83  1  0  0  0  0
 48 83  1  0  0  0  0
 42 84  1  0  0  0  0
 43 84  1  0  0  0  0
 48 84  1  0  0  0  0
 49 84  1  0  0  0  0
 43 85  1  0  0  0  0
 44 85  1  0  0  0  0
 49 85  1  0  0  0  0
 50 85  1  0  0  0  0
 69 86  1  0  0  0  0
 70 86  1  0  0  0  0
 75 86  1  0  0  0  0
 76 86  1  0  0  0  0
 70 87  1  0  0  0  0
 71 87  1  0  0  0  0
 76 87  1  0  0  0  0
 77 87  1  0  0  0  0
 71 88  1  0  0  0  0
 72 88  1  0  0  0  0
 77 88  1  0  0  0  0
 78 88  1  0  0  0  0
 72 89  1  0  0  0  0
 73 89  1  0  0  0  0
 78 89  1  0  0  0  0
 79 89  1  0  0  0  0
 73 90  1  0  0  0  0
 74 90  1  0  0  0  0
 79 90  1  0  0  0  0
 80 90  1  0  0  0  0
 51 91  1  0  0  0  0
 52 91  1  0  0  0  0
 57 91  1  0  0  0  0
 58 91  1  0  0  0  0
 63 91  1  0  0  0  0
 64 91  1  0  0  0  0
 39 92  1  0  0  0  0
 51 93  1  0  0  0  0
 63 94  1  0  0  0  0
 75 95  1  0  0  0  0
 44 96  1  0  0  0  0
 56 97  1  0  0  0  0
 68 98  1  0  0  0  0
M  END
