 xtb: 6.7.1pre (5071a88)
          09012616373D

 98139  0     0  0            999 V2000
    2.7844    4.7264    9.2360 C   0  0  0  0  0  0  0  0  0  0  0  0
    2.0756    3.6548    9.5349 C   0  0  0  0  0  0  0  0  0  0  0  0
    0.5818    3.6361    9.6741 C   0  0  0  0  0  0  0  0  0  0  0  0
   -0.0055    2.7256    8.6282 C   0  0  0  0  0  0  0  0  0  0  0  0
   -0.1030    3.1496    7.3095 C   0  0  0  0  0  0  0  0  0  0  0  0
   -0.6172    2.3047    6.3448 C   0  0  0  0  0  0  0  0  0  0  0  0
   -1.0342    1.0235    6.6757 C   0  0  0  0  0  0  0  0  0  0  0  0
   -1.5595    0.1945    5.7102 O   0  0  0  0  0  0  0  0  0  0  0  0
   -0.9236    0.5598    7.9916 C   0  0  0  0  0  0  0  0  0  0  0  0
   -1.2644   -0.8088    8.4305 C   0  0  0  0  0  0  0  0  0  0  0  0
   -0.3317   -1.4815    9.2204 C   0  0  0  0  0  0  0  0  0  0  0  0
   -0.5817   -2.7299    9.7615 C   0  0  0  0  0  0  0  0  0  0  0  0
    0.4805   -3.4355   10.5642 C   0  0  0  0  0  0  0  0  0  0  0  0
    1.4075   -4.1648    9.6373 C   0  0  0  0  0  0  0  0  0  0  0  0
    2.6980   -3.9151    9.5243 C   0  0  0  0  0  0  0  0  0  0  0  0
   -1.8134   -3.3235    9.5121 C   0  0  0  0  0  0  0  0  0  0  0  0
   -2.7488   -2.6872    8.7231 C   0  0  0  0  0  0  0  0  0  0  0  0
   -2.4864   -1.4400    8.1622 C   0  0  0  0  0  0  0  0  0  0  0  0
   -3.4671   -0.8810    7.4104 O   0  0  0  0  0  0  0  0  0  0  0  0
   -0.4076    1.4399    8.9440 C   0  0  0  0  0  0  0  0  0  0  0  0
    3.8556    4.6926    9.1344 H   0  0  0  0  0  0  0  0  0  0  0  0
    2.3224    5.6894    9.0915 H   0  0  0  0  0  0  0  0  0  0  0  0
    2.5589    2.6967    9.6738 H   0  0  0  0  0  0  0  0  0  0  0  0
    0.3149    3.2703   10.6688 H   0  0  0  0  0  0  0  0  0  0  0  0
    0.1885    4.6478    9.5568 H   0  0  0  0  0  0  0  0  0  0  0  0
    0.2234    4.1416    7.0376 H   0  0  0  0  0  0  0  0  0  0  0  0
   -0.6938    2.6366    5.3176 H   0  0  0  0  0  0  0  0  0  0  0  0
   -1.4297    0.5938    4.8411 H   0  0  0  0  0  0  0  0  0  0  0  0
    0.6236   -1.0099    9.4008 H   0  0  0  0  0  0  0  0  0  0  0  0
    1.0470   -2.7158   11.1580 H   0  0  0  0  0  0  0  0  0  0  0  0
    0.0100   -4.1537   11.2412 H   0  0  0  0  0  0  0  0  0  0  0  0
    0.9382   -4.9209    9.0225 H   0  0  0  0  0  0  0  0  0  0  0  0
    3.3274   -4.4529    8.8362 H   0  0  0  0  0  0  0  0  0  0  0  0
    3.1842   -3.1619   10.1231 H   0  0  0  0  0  0  0  0  0  0  0  0
   -2.0410   -4.2919    9.9339 H   0  0  0  0  0  0  0  0  0  0  0  0
   -3.7079   -3.1386    8.5228 H   0  0  0  0  0  0  0  0  0  0  0  0
   -3.0808   -0.2102    6.8324 H   0  0  0  0  0  0  0  0  0  0  0  0
   -0.3396    1.0966    9.9654 H   0  0  0  0  0  0  0  0  0  0  0  0
   -6.8903   -4.6623    0.4947 B   0  0  0  0  0  0  0  0  0  0  0  0
   -5.1132   -2.2310    0.3462 B   0  0  0  0  0  0  0  0  0  0  0  0
   -3.5958   -2.2003    0.1621 B   0  0  0  0  0  0  0  0  0  0  0  0
    0.9970   -2.8807    0.0952 B   0  0  0  0  0  0  0  0  0  0  0  0
    2.4760   -3.0210   -0.2266 B   0  0  0  0  0  0  0  0  0  0  0  0
    5.2830   -3.7976   -0.7472 B   0  0  0  0  0  0  0  0  0  0  0  0
    6.2625   -4.7563   -1.3819 B   0  0  0  0  0  0  0  0  0  0  0  0
   -6.4214   -3.1654    0.3634 B   0  0  0  0  0  0  0  0  0  0  0  0
   -6.7614   -1.6486    0.2805 B   0  0  0  0  0  0  0  0  0  0  0  0
   -2.0645   -2.3434    0.2780 B   0  0  0  0  0  0  0  0  0  0  0  0
   -0.4951   -2.4785    0.2333 B   0  0  0  0  0  0  0  0  0  0  0  0
    4.0156   -2.8852   -0.2674 B   0  0  0  0  0  0  0  0  0  0  0  0
    5.7414   -2.2741   -0.2945 B   0  0  0  0  0  0  0  0  0  0  0  0
    6.8064   -3.1760   -1.1544 B   0  0  0  0  0  0  0  0  0  0  0  0
   -7.6466   -0.2665    0.2989 B   0  0  0  0  0  0  0  0  0  0  0  0
   -6.0351   -0.1604    0.0910 B   0  0  0  0  0  0  0  0  0  0  0  0
   -4.4330   -0.5622    0.1525 B   0  0  0  0  0  0  0  0  0  0  0  0
   -2.7356   -0.6819    0.1890 B   0  0  0  0  0  0  0  0  0  0  0  0
   -1.0634   -0.9250    0.5744 B   0  0  0  0  0  0  0  0  0  0  0  0
    0.5003   -1.1949    0.7256 B   0  0  0  0  0  0  0  0  0  0  0  0
    3.1058   -1.4779   -0.0447 B   0  0  0  0  0  0  0  0  0  0  0  0
    4.6849   -1.1503    0.3845 B   0  0  0  0  0  0  0  0  0  0  0  0
    6.2492   -0.7839    0.2763 B   0  0  0  0  0  0  0  0  0  0  0  0
    7.6857   -0.3576    1.0026 B   0  0  0  0  0  0  0  0  0  0  0  0
   -6.8977    1.1954    0.0934 B   0  0  0  0  0  0  0  0  0  0  0  0
   -3.4133    0.7668    0.0055 B   0  0  0  0  0  0  0  0  0  0  0  0
   -1.6625    0.5325    0.0737 B   0  0  0  0  0  0  0  0  0  0  0  0
    1.8438   -0.4000    0.3534 B   0  0  0  0  0  0  0  0  0  0  0  0
    3.5684   -0.1677    0.8372 B   0  0  0  0  0  0  0  0  0  0  0  0
    6.9584    0.6165   -0.0988 B   0  0  0  0  0  0  0  0  0  0  0  0
    8.3227    1.0461    0.5642 B   0  0  0  0  0  0  0  0  0  0  0  0
   -7.5482    2.7918    0.3448 B   0  0  0  0  0  0  0  0  0  0  0  0
   -6.1618    2.5014   -0.3854 B   0  0  0  0  0  0  0  0  0  0  0  0
   -3.5947    2.3089   -0.3207 B   0  0  0  0  0  0  0  0  0  0  0  0
   -0.9008    1.8321   -0.4221 B   0  0  0  0  0  0  0  0  0  0  0  0
    1.6250    1.0386   -0.3542 B   0  0  0  0  0  0  0  0  0  0  0  0
    2.9989    1.2974    0.6133 B   0  0  0  0  0  0  0  0  0  0  0  0
    6.3315    1.8897   -0.8603 B   0  0  0  0  0  0  0  0  0  0  0  0
   -6.5087    4.0343   -0.2041 B   0  0  0  0  0  0  0  0  0  0  0  0
   -4.8834    3.4563   -0.5196 B   0  0  0  0  0  0  0  0  0  0  0  0
   -3.4220    3.8649   -0.6673 B   0  0  0  0  0  0  0  0  0  0  0  0
   -2.0151    3.2387   -0.6910 B   0  0  0  0  0  0  0  0  0  0  0  0
   -0.4832    3.3122   -0.8339 B   0  0  0  0  0  0  0  0  0  0  0  0
    0.7213    2.3617   -0.6757 B   0  0  0  0  0  0  0  0  0  0  0  0
    2.3358    2.5009   -0.3621 B   0  0  0  0  0  0  0  0  0  0  0  0
    3.8127    2.6254    0.0354 B   0  0  0  0  0  0  0  0  0  0  0  0
    5.3645    2.8776   -0.0262 B   0  0  0  0  0  0  0  0  0  0  0  0
    6.0599    4.0565    0.7983 B   0  0  0  0  0  0  0  0  0  0  0  0
    6.1931    5.1509    0.3727 H   0  0  0  0  0  0  0  0  0  0  0  0
    8.2609   -1.1312    1.6692 H   0  0  0  0  0  0  0  0  0  0  0  0
    6.5372    2.0376   -2.0176 H   0  0  0  0  0  0  0  0  0  0  0  0
   -6.9644   -5.4004   -0.4320 H   0  0  0  0  0  0  0  0  0  0  0  0
   -6.7669    5.1749   -0.2895 H   0  0  0  0  0  0  0  0  0  0  0  0
    9.1989    1.8107    0.6697 H   0  0  0  0  0  0  0  0  0  0  0  0
   -8.8191   -0.3419    0.3189 H   0  0  0  0  0  0  0  0  0  0  0  0
    6.7001   -5.7510   -1.8170 H   0  0  0  0  0  0  0  0  0  0  0  0
   -8.5876    2.9823    0.8515 H   0  0  0  0  0  0  0  0  0  0  0  0
    7.8764   -2.8212   -1.4935 H   0  0  0  0  0  0  0  0  0  0  0  0
    6.4713    3.9090    1.8965 H   0  0  0  0  0  0  0  0  0  0  0  0
   -7.2603   -5.1555    1.5078 H   0  0  0  0  0  0  0  0  0  0  0  0
  1  2  2  0  0  0  0
  2  3  1  0  0  0  0
  3  4  1  0  0  0  0
  4  5  4  0  0  0  0
  5  6  4  0  0  0  0
  6  7  4  0  0  0  0
  7  8  1  0  0  0  0
  7  9  4  0  0  0  0
  9 10  1  0  0  0  0
 10 11  4  0  0  0  0
 11 12  4  0  0  0  0
 12 13  1  0  0  0  0
 13 14  1  0  0  0  0
 14 15  2  0  0  0  0
 12 16  4  0  0  0  0
 16 17  4  0  0  0  0
 10 18  4  0  0  0  0
 17 18  4  0  0  0  0
 18 19  1  0  0  0  0
  4 20  4  0  0  0  0
  9 20  4  0  0  0  0
  1 21  1  0  0  0  0
  1 22  1  0  0  0  0
  2 23  1  0  0  0  0
  3 24  1  0  0  0  0
  3 25  1  0  0  0  0
  5 26  1  0  0  0  0
  6 27  1  0  0  0  0
  8 28  1  0  0  0  0
 11 29  1  0  0  0  0
 13 30  1  0  0  0  0
 13 31  1  0  0  0  0
 14 32  1  0  0  0  0
 15 33  1  0  0  0  0
 15 34  1  0  0  0  0
 16 35  1  0  0  0  0
 17 36  1  0  0  0  0
 19 37  1  0  0  0  0
 20 38  1  0  0  0  0
 40 41  1  0  0  0  0
 42 43  2  0  0  0  0
 44 45  2  0  0  0  0
 39 46  1  0  0  0  0
 40 46  1  0  0  0  0
 40 47  1  0  0  0  0
 46 47  1  0  0  0  0
 41 48  1  0  0  0  0
 42 49  1  0  0  0  0
 48 49  1  0  0  0  0
 43 50  1  0  0  0  0
 44 50  1  0  0  0  0
 44 51  1  0  0  0  0
 50 51  1  0  0  0  0
 44 52  1  0  0  0  0
 45 52  1  0  0  0  0
 51 52  1  0  0  0  0
 47 53  1  0  0  0  0
 47 54  1  0  0  0  0
 53 54  1  0  0  0  0
 40 55  1  0  0  0  0
 41 55  1  0  0  0  0
 54 55  1  0  0  0  0
 41 56  1  0  0  0  0
 48 56  1  0  0  0  0
 55 56  1  0  0  0  0
 48 57  1  0  0  0  0
 49 57  1  0  0  0  0
 56 57  1  0  0  0  0
 42 58  1  0  0  0  0
 49 58  1  0  0  0  0
 57 58  1  0  0  0  0
 43 59  1  0  0  0  0
 50 59  1  0  0  0  0
 50 60  1  0  0  0  0
 51 60  1  0  0  0  0
 59 60  1  0  0  0  0
 51 61  1  0  0  0  0
 60 61  1  0  0  0  0
 61 62  1  0  0  0  0
 53 63  1  0  0  0  0
 54 63  1  0  0  0  0
 55 64  1  0  0  0  0
 56 64  1  0  0  0  0
 56 65  1  0  0  0  0
 57 65  1  0  0  0  0
 64 65  1  0  0  0  0
 58 66  1  0  0  0  0
 59 66  1  0  0  0  0
 59 67  1  0  0  0  0
 60 67  1  0  0  0  0
 66 67  1  0  0  0  0
 61 68  1  0  0  0  0
 62 68  1  0  0  0  0
 62 69  1  0  0  0  0
 68 69  1  0  0  0  0
 63 70  1  0  0  0  0
 63 71  1  0  0  0  0
 70 71  1  0  0  0  0
 64 72  1  0  0  0  0
 65 73  1  0  0  0  0
 66 74  1  0  0  0  0
 67 75  1  0  0  0  0
 74 75  1  0  0  0  0
 68 76  1  0  0  0  0
 70 77  1  0  0  0  0
 71 77  1  0  0  0  0
 71 78  1  0  0  0  0
 72 78  1  0  0  0  0
 77 78  1  0  0  0  0
 72 79  1  0  0  0  0
 78 79  1  0  0  0  0
 72 80  1  0  0  0  0
 73 80  1  0  0  0  0
 79 80  1  0  0  0  0
 73 81  1  0  0  0  0
 80 81  1  0  0  0  0
 73 82  1  0  0  0  0
 74 82  1  0  0  0  0
 81 82  1  0  0  0  0
 74 83  1  0  0  0  0
 75 83  1  0  0  0  0
 82 83  1  0  0  0  0
 75 84  1  0  0  0  0
 83 84  1  0  0  0  0
 76 85  1  0  0  0  0
 84 85  1  0  0  0  0
 85 86  1  0  0  0  0
 86 87  1  0  0  0  0
 62 88  1  0  0  0  0
 76 89  1  0  0  0  0
 39 90  1  0  0  0  0
 77 91  1  0  0  0  0
 69 92  1  0  0  0  0
 53 93  1  0  0  0  0
 45 94  1  0  0  0  0
 70 95  1  0  0  0  0
 52 96  1  0  0  0  0
 86 97  1  0  0  0  0
 39 98  1  0  0  0  0
M  END
