 xtb: 6.7.1pre (5071a88)
          08312622093D

 98152  0     0  0            999 V2000
    2.8067    4.6533    9.4639 C   0  0  0  0  0  0  0  0  0  0  0  0
    2.0341    3.6010    9.6515 C   0  0  0  0  0  0  0  0  0  0  0  0
    0.5331    3.6332    9.6745 C   0  0  0  0  0  0  0  0  0  0  0  0
   -0.0127    2.7044    8.6208 C   0  0  0  0  0  0  0  0  0  0  0  0
   -0.1071    3.1064    7.2950 C   0  0  0  0  0  0  0  0  0  0  0  0
   -0.5926    2.2403    6.3344 C   0  0  0  0  0  0  0  0  0  0  0  0
   -0.9796    0.9446    6.6596 C   0  0  0  0  0  0  0  0  0  0  0  0
   -1.4778    0.0957    5.7183 O   0  0  0  0  0  0  0  0  0  0  0  0
   -0.8612    0.5113    7.9896 C   0  0  0  0  0  0  0  0  0  0  0  0
   -1.1833   -0.8416    8.4839 C   0  0  0  0  0  0  0  0  0  0  0  0
   -0.2584   -1.4482    9.3290 C   0  0  0  0  0  0  0  0  0  0  0  0
   -0.5199   -2.6418    9.9771 C   0  0  0  0  0  0  0  0  0  0  0  0
    0.5423   -3.3010   10.8203 C   0  0  0  0  0  0  0  0  0  0  0  0
    1.4500   -4.1033    9.9345 C   0  0  0  0  0  0  0  0  0  0  0  0
    2.7305   -3.8471    9.7458 C   0  0  0  0  0  0  0  0  0  0  0  0
   -1.7694   -3.2239    9.8004 C   0  0  0  0  0  0  0  0  0  0  0  0
   -2.6906   -2.6582    8.9441 C   0  0  0  0  0  0  0  0  0  0  0  0
   -2.4055   -1.4875    8.2474 C   0  0  0  0  0  0  0  0  0  0  0  0
   -3.3435   -1.0016    7.4046 O   0  0  0  0  0  0  0  0  0  0  0  0
   -0.3901    1.4131    8.9394 C   0  0  0  0  0  0  0  0  0  0  0  0
    3.8817    4.5773    9.4477 H   0  0  0  0  0  0  0  0  0  0  0  0
    2.4051    5.6431    9.3178 H   0  0  0  0  0  0  0  0  0  0  0  0
    2.4696    2.6189    9.7902 H   0  0  0  0  0  0  0  0  0  0  0  0
    0.1924    3.3048   10.6602 H   0  0  0  0  0  0  0  0  0  0  0  0
    0.1821    4.6507    9.5010 H   0  0  0  0  0  0  0  0  0  0  0  0
    0.1920    4.1054    7.0186 H   0  0  0  0  0  0  0  0  0  0  0  0
   -0.6875    2.5566    5.3055 H   0  0  0  0  0  0  0  0  0  0  0  0
   -1.2791    0.3827    4.7623 H   0  0  0  0  0  0  0  0  0  0  0  0
    0.6977   -0.9663    9.4745 H   0  0  0  0  0  0  0  0  0  0  0  0
    1.1247   -2.5486   11.3532 H   0  0  0  0  0  0  0  0  0  0  0  0
    0.0679   -3.9656   11.5450 H   0  0  0  0  0  0  0  0  0  0  0  0
    0.9716   -4.9221    9.4113 H   0  0  0  0  0  0  0  0  0  0  0  0
    3.3455   -4.4427    9.0920 H   0  0  0  0  0  0  0  0  0  0  0  0
    3.2305   -3.0351   10.2487 H   0  0  0  0  0  0  0  0  0  0  0  0
   -2.0203   -4.1275   10.3334 H   0  0  0  0  0  0  0  0  0  0  0  0
   -3.6619   -3.1047    8.7963 H   0  0  0  0  0  0  0  0  0  0  0  0
   -2.9109   -0.4472    6.7295 H   0  0  0  0  0  0  0  0  0  0  0  0
   -0.3407    1.0820    9.9666 H   0  0  0  0  0  0  0  0  0  0  0  0
   -6.2703   -2.8618   -0.2797 B   0  0  0  0  0  0  0  0  0  0  0  0
   -3.8931   -3.4081    1.1441 B   0  0  0  0  0  0  0  0  0  0  0  0
   -1.1346   -4.1702    2.2915 B   0  0  0  0  0  0  0  0  0  0  0  0
    1.5679   -4.2359    1.5193 B   0  0  0  0  0  0  0  0  0  0  0  0
    2.8093   -3.6555    0.7487 B   0  0  0  0  0  0  0  0  0  0  0  0
    5.7208   -3.8147   -0.3065 B   0  0  0  0  0  0  0  0  0  0  0  0
   -4.6873   -2.3180   -0.2034 B   0  0  0  0  0  0  0  0  0  0  0  0
   -2.6790   -2.1684    1.2463 B   0  0  0  0  0  0  0  0  0  0  0  0
   -1.3074   -2.3782    2.1988 B   0  0  0  0  0  0  0  0  0  0  0  0
    0.1844   -3.1259    1.5797 B   0  0  0  0  0  0  0  0  0  0  0  0
    2.9544   -2.0799    0.2007 B   0  0  0  0  0  0  0  0  0  0  0  0
    5.0909   -2.5583   -1.0836 B   0  0  0  0  0  0  0  0  0  0  0  0
   -4.2224   -1.0519   -1.1243 B   0  0  0  0  0  0  0  0  0  0  0  0
   -3.1592   -1.2435    0.1043 B   0  0  0  0  0  0  0  0  0  0  0  0
   -0.8179   -0.9284    2.6540 B   0  0  0  0  0  0  0  0  0  0  0  0
    0.3244   -1.4815    1.2939 B   0  0  0  0  0  0  0  0  0  0  0  0
    4.0853   -1.2493   -0.4833 B   0  0  0  0  0  0  0  0  0  0  0  0
    6.6587   -2.4617   -0.7664 B   0  0  0  0  0  0  0  0  0  0  0  0
   -4.7375   -0.6547   -2.6713 B   0  0  0  0  0  0  0  0  0  0  0  0
   -3.0493    0.1493   -0.6384 B   0  0  0  0  0  0  0  0  0  0  0  0
   -0.9549    0.6112    2.8137 B   0  0  0  0  0  0  0  0  0  0  0  0
   -0.1102    0.0013    1.4134 B   0  0  0  0  0  0  0  0  0  0  0  0
    4.7223    0.2519   -0.4941 B   0  0  0  0  0  0  0  0  0  0  0  0
    5.6848   -1.0479   -1.0800 B   0  0  0  0  0  0  0  0  0  0  0  0
   -5.4560    0.8679   -2.8154 B   0  0  0  0  0  0  0  0  0  0  0  0
   -2.7109    1.6014   -0.3443 B   0  0  0  0  0  0  0  0  0  0  0  0
   -1.2356    2.1288    2.6625 B   0  0  0  0  0  0  0  0  0  0  0  0
    0.1388    1.5525    1.5447 B   0  0  0  0  0  0  0  0  0  0  0  0
    4.1081    1.6268    0.1206 B   0  0  0  0  0  0  0  0  0  0  0  0
    6.1144    0.4441   -1.6135 B   0  0  0  0  0  0  0  0  0  0  0  0
   -5.5088    1.7732   -1.3993 B   0  0  0  0  0  0  0  0  0  0  0  0
   -3.2396    2.9195    0.1837 B   0  0  0  0  0  0  0  0  0  0  0  0
   -1.6880    3.5900    2.3138 B   0  0  0  0  0  0  0  0  0  0  0  0
   -0.0875    3.1555    1.8226 B   0  0  0  0  0  0  0  0  0  0  0  0
    2.8467    2.2660    0.8372 B   0  0  0  0  0  0  0  0  0  0  0  0
    5.5978    1.7116   -0.7350 B   0  0  0  0  0  0  0  0  0  0  0  0
   -6.4499    2.8245   -0.8062 B   0  0  0  0  0  0  0  0  0  0  0  0
   -4.4351    3.8086    0.8711 B   0  0  0  0  0  0  0  0  0  0  0  0
   -1.8152    5.1280    1.6857 B   0  0  0  0  0  0  0  0  0  0  0  0
    1.1349    4.4146    1.7062 B   0  0  0  0  0  0  0  0  0  0  0  0
    2.4931    3.9231    1.1119 B   0  0  0  0  0  0  0  0  0  0  0  0
    5.1747    3.0313   -0.0971 B   0  0  0  0  0  0  0  0  0  0  0  0
   -5.3008   -3.6338    0.5621 B   0  0  0  0  0  0  0  0  0  0  0  0
   -2.5681   -3.6129    1.9669 B   0  0  0  0  0  0  0  0  0  0  0  0
    0.2641   -4.7415    2.1071 B   0  0  0  0  0  0  0  0  0  0  0  0
    1.5940   -2.3688    0.9924 B   0  0  0  0  0  0  0  0  0  0  0  0
    4.1567   -3.4093    0.0180 B   0  0  0  0  0  0  0  0  0  0  0  0
   -4.9535    2.8198   -0.2011 B   0  0  0  0  0  0  0  0  0  0  0  0
   -3.0334    4.2345    1.3498 B   0  0  0  0  0  0  0  0  0  0  0  0
   -0.3204    4.8831    1.9243 B   0  0  0  0  0  0  0  0  0  0  0  0
    1.3937    2.5356    1.3414 B   0  0  0  0  0  0  0  0  0  0  0  0
    3.9300    3.6199    0.5725 B   0  0  0  0  0  0  0  0  0  0  0  0
   -4.3728    0.5851   -1.6568 B   0  0  0  0  0  0  0  0  0  0  0  0
   -7.2419   -2.5255   -0.8483 H   0  0  0  0  0  0  0  0  0  0  0  0
   -4.6670   -1.4023   -3.5802 H   0  0  0  0  0  0  0  0  0  0  0  0
   -5.9369    1.2614   -3.8150 H   0  0  0  0  0  0  0  0  0  0  0  0
   -7.4344    3.4343   -0.6386 H   0  0  0  0  0  0  0  0  0  0  0  0
    6.1514   -4.9089   -0.2660 H   0  0  0  0  0  0  0  0  0  0  0  0
    7.8266   -2.4506   -0.8922 H   0  0  0  0  0  0  0  0  0  0  0  0
    6.7853    0.5817   -2.5782 H   0  0  0  0  0  0  0  0  0  0  0  0
  1  2  2  0  0  0  0
  2  3  1  0  0  0  0
  3  4  1  0  0  0  0
  4  5  4  0  0  0  0
  5  6  4  0  0  0  0
  6  7  4  0  0  0  0
  7  8  1  0  0  0  0
  7  9  4  0  0  0  0
  9 10  1  0  0  0  0
 10 11  4  0  0  0  0
 11 12  4  0  0  0  0
 12 13  1  0  0  0  0
 13 14  1  0  0  0  0
 14 15  2  0  0  0  0
 12 16  4  0  0  0  0
 16 17  4  0  0  0  0
 10 18  4  0  0  0  0
 17 18  4  0  0  0  0
 18 19  1  0  0  0  0
  4 20  4  0  0  0  0
  9 20  4  0  0  0  0
  1 21  1  0  0  0  0
  1 22  1  0  0  0  0
  2 23  1  0  0  0  0
  3 24  1  0  0  0  0
  3 25  1  0  0  0  0
  5 26  1  0  0  0  0
  6 27  1  0  0  0  0
  8 28  1  0  0  0  0
 11 29  1  0  0  0  0
 13 30  1  0  0  0  0
 13 31  1  0  0  0  0
 14 32  1  0  0  0  0
 15 33  1  0  0  0  0
 15 34  1  0  0  0  0
 16 35  1  0  0  0  0
 17 36  1  0  0  0  0
 19 37  1  0  0  0  0
 20 38  1  0  0  0  0
 42 43  1  0  0  0  0
 39 45  1  0  0  0  0
 40 45  1  0  0  0  0
 40 46  1  0  0  0  0
 41 47  1  0  0  0  0
 46 47  1  0  0  0  0
 41 48  1  0  0  0  0
 42 48  1  0  0  0  0
 47 48  1  0  0  0  0
 43 49  1  0  0  0  0
 44 50  1  0  0  0  0
 45 51  1  0  0  0  0
 45 52  1  0  0  0  0
 46 52  1  0  0  0  0
 51 52  1  0  0  0  0
 47 53  1  0  0  0  0
 48 54  1  0  0  0  0
 53 54  1  0  0  0  0
 49 55  1  0  0  0  0
 50 55  1  0  0  0  0
 44 56  1  0  0  0  0
 50 56  1  0  0  0  0
 51 57  1  0  0  0  0
 51 58  1  0  0  0  0
 52 58  1  0  0  0  0
 53 59  1  0  0  0  0
 53 60  1  0  0  0  0
 54 60  1  0  0  0  0
 59 60  1  0  0  0  0
 55 61  1  0  0  0  0
 50 62  1  0  0  0  0
 55 62  1  0  0  0  0
 56 62  1  0  0  0  0
 61 62  1  0  0  0  0
 57 63  1  0  0  0  0
 58 64  1  0  0  0  0
 59 65  1  0  0  0  0
 59 66  1  0  0  0  0
 60 66  1  0  0  0  0
 65 66  1  0  0  0  0
 61 67  1  0  0  0  0
 61 68  1  0  0  0  0
 62 68  1  0  0  0  0
 63 69  1  0  0  0  0
 64 70  2  0  0  0  0
 65 71  1  0  0  0  0
 65 72  1  0  0  0  0
 66 72  1  0  0  0  0
 71 72  1  0  0  0  0
 67 73  1  0  0  0  0
 61 74  1  0  0  0  0
 67 74  1  0  0  0  0
 68 74  1  0  0  0  0
 69 75  1  0  0  0  0
 70 76  1  0  0  0  0
 71 77  1  0  0  0  0
 72 78  1  0  0  0  0
 73 79  1  0  0  0  0
 78 79  1  0  0  0  0
 67 80  1  0  0  0  0
 74 80  1  0  0  0  0
 39 81  2  0  0  0  0
 40 81  1  0  0  0  0
 45 81  1  0  0  0  0
 40 82  1  0  0  0  0
 41 82  1  0  0  0  0
 46 82  1  0  0  0  0
 47 82  1  0  0  0  0
 41 83  1  0  0  0  0
 42 83  1  0  0  0  0
 48 83  1  0  0  0  0
 42 84  1  0  0  0  0
 43 84  1  0  0  0  0
 48 84  1  0  0  0  0
 49 84  1  0  0  0  0
 54 84  1  0  0  0  0
 43 85  1  0  0  0  0
 44 85  1  0  0  0  0
 49 85  1  0  0  0  0
 50 85  1  0  0  0  0
 69 86  1  0  0  0  0
 70 86  1  0  0  0  0
 75 86  1  0  0  0  0
 76 86  1  0  0  0  0
 70 87  1  0  0  0  0
 71 87  1  0  0  0  0
 76 87  1  0  0  0  0
 77 87  1  0  0  0  0
 71 88  1  0  0  0  0
 72 88  1  0  0  0  0
 77 88  1  0  0  0  0
 78 88  1  0  0  0  0
 66 89  1  0  0  0  0
 72 89  1  0  0  0  0
 73 89  1  0  0  0  0
 78 89  1  0  0  0  0
 79 89  1  0  0  0  0
 67 90  1  0  0  0  0
 73 90  1  0  0  0  0
 79 90  1  0  0  0  0
 80 90  1  0  0  0  0
 51 91  1  0  0  0  0
 57 91  1  0  0  0  0
 58 91  1  0  0  0  0
 63 91  1  0  0  0  0
 69 91  1  0  0  0  0
 39 92  1  0  0  0  0
 57 93  1  0  0  0  0
 63 94  1  0  0  0  0
 75 95  1  0  0  0  0
 44 96  1  0  0  0  0
 56 97  1  0  0  0  0
 68 98  1  0  0  0  0
M  END
