 xtb: 6.7.1pre (5071a88)
          09012620403D

 93131  0     0  0            999 V2000
    1.6559    4.9879   10.3421 C   0  0  0  0  0  0  0  0  0  0  0  0
    0.8562    3.9410   10.2712 C   0  0  0  0  0  0  0  0  0  0  0  0
   -0.4248    3.9017    9.4933 C   0  0  0  0  0  0  0  0  0  0  0  0
   -0.2615    2.9438    8.3418 C   0  0  0  0  0  0  0  0  0  0  0  0
    0.3840    3.3502    7.1828 C   0  0  0  0  0  0  0  0  0  0  0  0
    0.5544    2.4672    6.1371 C   0  0  0  0  0  0  0  0  0  0  0  0
    0.0911    1.1607    6.2259 C   0  0  0  0  0  0  0  0  0  0  0  0
    0.2337    0.3051    5.1751 O   0  0  0  0  0  0  0  0  0  0  0  0
   -0.5198    0.7096    7.4036 C   0  0  0  0  0  0  0  0  0  0  0  0
   -0.9518   -0.6825    7.6533 C   0  0  0  0  0  0  0  0  0  0  0  0
   -0.6382   -1.2251    8.8999 C   0  0  0  0  0  0  0  0  0  0  0  0
   -1.0846   -2.4686    9.3086 C   0  0  0  0  0  0  0  0  0  0  0  0
   -0.6927   -3.0171   10.6574 C   0  0  0  0  0  0  0  0  0  0  0  0
    0.5366   -3.8642   10.5190 C   0  0  0  0  0  0  0  0  0  0  0  0
    1.6958   -3.5990   11.0900 C   0  0  0  0  0  0  0  0  0  0  0  0
   -1.8764   -3.2052    8.4360 C   0  0  0  0  0  0  0  0  0  0  0  0
   -2.1694   -2.7124    7.1833 C   0  0  0  0  0  0  0  0  0  0  0  0
   -1.7051   -1.4655    6.7657 C   0  0  0  0  0  0  0  0  0  0  0  0
   -2.0594   -1.0698    5.5211 O   0  0  0  0  0  0  0  0  0  0  0  0
   -0.6898    1.6312    8.4362 C   0  0  0  0  0  0  0  0  0  0  0  0
    2.5801    4.9663   10.8960 H   0  0  0  0  0  0  0  0  0  0  0  0
    1.4145    5.9193    9.8571 H   0  0  0  0  0  0  0  0  0  0  0  0
    1.1224    3.0138   10.7620 H   0  0  0  0  0  0  0  0  0  0  0  0
   -1.2367    3.5640   10.1410 H   0  0  0  0  0  0  0  0  0  0  0  0
   -0.6615    4.8994    9.1201 H   0  0  0  0  0  0  0  0  0  0  0  0
    0.7500    4.3618    7.0949 H   0  0  0  0  0  0  0  0  0  0  0  0
    1.0423    2.7872    5.2291 H   0  0  0  0  0  0  0  0  0  0  0  0
    0.6867    0.7357    4.4237 H   0  0  0  0  0  0  0  0  0  0  0  0
   -0.0135   -0.6493    9.5682 H   0  0  0  0  0  0  0  0  0  0  0  0
   -0.5006   -2.2004   11.3554 H   0  0  0  0  0  0  0  0  0  0  0  0
   -1.5080   -3.6306   11.0515 H   0  0  0  0  0  0  0  0  0  0  0  0
    0.4254   -4.7285    9.8770 H   0  0  0  0  0  0  0  0  0  0  0  0
    2.5584   -4.2282   10.9521 H   0  0  0  0  0  0  0  0  0  0  0  0
    1.8322   -2.7399   11.7271 H   0  0  0  0  0  0  0  0  0  0  0  0
   -2.2586   -4.1706    8.7358 H   0  0  0  0  0  0  0  0  0  0  0  0
   -2.7756   -3.2775    6.4925 H   0  0  0  0  0  0  0  0  0  0  0  0
   -1.4430   -0.3837    5.2138 H   0  0  0  0  0  0  0  0  0  0  0  0
   -1.1932    1.3050    9.3347 H   0  0  0  0  0  0  0  0  0  0  0  0
   -4.3261   -2.9669    0.6324 B   0  0  0  0  0  0  0  0  0  0  0  0
   -4.2538   -1.5976   -0.1917 B   0  0  0  0  0  0  0  0  0  0  0  0
   -4.3909   -0.2565   -1.1963 B   0  0  0  0  0  0  0  0  0  0  0  0
   -3.1809   -2.8708   -0.4770 B   0  0  0  0  0  0  0  0  0  0  0  0
   -2.8942    0.0961   -0.9498 B   0  0  0  0  0  0  0  0  0  0  0  0
   -3.9329    0.0417    0.5065 B   0  0  0  0  0  0  0  0  0  0  0  0
   -4.5453    0.6927    1.8491 B   0  0  0  0  0  0  0  0  0  0  0  0
   -3.9924    2.0491    2.5737 B   0  0  0  0  0  0  0  0  0  0  0  0
   -2.3043    0.1748    0.5819 B   0  0  0  0  0  0  0  0  0  0  0  0
   -2.6268    1.8826    3.4393 B   0  0  0  0  0  0  0  0  0  0  0  0
   -2.0102   -3.9734   -0.8777 B   0  0  0  0  0  0  0  0  0  0  0  0
   -1.7195   -2.3771   -1.0767 B   0  0  0  0  0  0  0  0  0  0  0  0
   -1.4238   -0.7712   -0.8421 B   0  0  0  0  0  0  0  0  0  0  0  0
   -0.4732   -3.4251   -0.7505 B   0  0  0  0  0  0  0  0  0  0  0  0
    0.1588   -0.2979   -0.6476 B   0  0  0  0  0  0  0  0  0  0  0  0
   -0.8546   -0.5151    0.7414 B   0  0  0  0  0  0  0  0  0  0  0  0
   -1.1911    0.8931    1.5201 B   0  0  0  0  0  0  0  0  0  0  0  0
   -1.2885    2.0644    2.5540 B   0  0  0  0  0  0  0  0  0  0  0  0
    0.4604    0.0481    1.3756 B   0  0  0  0  0  0  0  0  0  0  0  0
   -0.1545    3.1734    2.8876 B   0  0  0  0  0  0  0  0  0  0  0  0
    0.7171   -3.9053    0.3719 B   0  0  0  0  0  0  0  0  0  0  0  0
    0.9484   -2.7066   -0.6749 B   0  0  0  0  0  0  0  0  0  0  0  0
    1.6396   -1.2756   -0.6788 B   0  0  0  0  0  0  0  0  0  0  0  0
    1.8360   -2.7279    0.6999 B   0  0  0  0  0  0  0  0  0  0  0  0
    2.9628   -0.4548   -0.3467 B   0  0  0  0  0  0  0  0  0  0  0  0
    1.4225    0.4967   -0.2329 B   0  0  0  0  0  0  0  0  0  0  0  0
    1.6367    0.7374    2.3828 B   0  0  0  0  0  0  0  0  0  0  0  0
    1.0559    2.2208    2.5290 B   0  0  0  0  0  0  0  0  0  0  0  0
    2.6970    1.3931   -0.0342 B   0  0  0  0  0  0  0  0  0  0  0  0
    1.5929    3.0587    1.1697 B   0  0  0  0  0  0  0  0  0  0  0  0
    1.2388   -1.0127    2.4575 B   0  0  0  0  0  0  0  0  0  0  0  0
    2.5523   -1.6991    1.6194 B   0  0  0  0  0  0  0  0  0  0  0  0
    3.7552   -0.5558    1.3490 B   0  0  0  0  0  0  0  0  0  0  0  0
    2.8489   -0.3225    2.7356 B   0  0  0  0  0  0  0  0  0  0  0  0
    5.3395   -0.1381    1.2033 B   0  0  0  0  0  0  0  0  0  0  0  0
    4.3609    0.2162   -0.1785 B   0  0  0  0  0  0  0  0  0  0  0  0
    4.2313    1.9766   -0.0550 B   0  0  0  0  0  0  0  0  0  0  0  0
    3.1261    2.7647    0.8618 B   0  0  0  0  0  0  0  0  0  0  0  0
    5.6864    1.1736    0.2433 B   0  0  0  0  0  0  0  0  0  0  0  0
    4.7089    2.8674    1.1489 B   0  0  0  0  0  0  0  0  0  0  0  0
   -4.5587   -3.6223    1.5737 H   0  0  0  0  0  0  0  0  0  0  0  0
   -5.3325   -2.2057    0.2990 H   0  0  0  0  0  0  0  0  0  0  0  0
   -5.3382   -0.0247   -1.8581 H   0  0  0  0  0  0  0  0  0  0  0  0
   -5.3324    0.0703    2.4831 H   0  0  0  0  0  0  0  0  0  0  0  0
   -4.5815    3.0672    2.4938 H   0  0  0  0  0  0  0  0  0  0  0  0
   -2.6589    1.5815    4.5770 H   0  0  0  0  0  0  0  0  0  0  0  0
   -2.2749   -5.0604   -1.2403 H   0  0  0  0  0  0  0  0  0  0  0  0
   -0.2397    4.2946    3.2280 H   0  0  0  0  0  0  0  0  0  0  0  0
    0.5506   -4.8415    1.0556 H   0  0  0  0  0  0  0  0  0  0  0  0
    0.8587    3.5876    0.4080 H   0  0  0  0  0  0  0  0  0  0  0  0
    0.5785   -1.5537    3.2768 H   0  0  0  0  0  0  0  0  0  0  0  0
    3.4196   -0.4476    3.7718 H   0  0  0  0  0  0  0  0  0  0  0  0
    6.1934   -0.8270    1.6339 H   0  0  0  0  0  0  0  0  0  0  0  0
    6.7286    1.4482   -0.2444 H   0  0  0  0  0  0  0  0  0  0  0  0
    5.4558    3.4837    1.7965 H   0  0  0  0  0  0  0  0  0  0  0  0
  1  2  2  0  0  0  0
  2  3  1  0  0  0  0
  3  4  1  0  0  0  0
  4  5  4  0  0  0  0
  5  6  4  0  0  0  0
  6  7  4  0  0  0  0
  7  8  1  0  0  0  0
  7  9  4  0  0  0  0
  9 10  1  0  0  0  0
 10 11  4  0  0  0  0
 11 12  4  0  0  0  0
 12 13  1  0  0  0  0
 13 14  1  0  0  0  0
 14 15  2  0  0  0  0
 12 16  4  0  0  0  0
 16 17  4  0  0  0  0
 10 18  4  0  0  0  0
 17 18  4  0  0  0  0
 18 19  1  0  0  0  0
  4 20  4  0  0  0  0
  9 20  4  0  0  0  0
  1 21  1  0  0  0  0
  1 22  1  0  0  0  0
  2 23  1  0  0  0  0
  3 24  1  0  0  0  0
  3 25  1  0  0  0  0
  5 26  1  0  0  0  0
  6 27  1  0  0  0  0
  8 28  1  0  0  0  0
 11 29  1  0  0  0  0
 13 30  1  0  0  0  0
 13 31  1  0  0  0  0
 14 32  1  0  0  0  0
 15 33  1  0  0  0  0
 15 34  1  0  0  0  0
 16 35  1  0  0  0  0
 17 36  1  0  0  0  0
 19 37  1  0  0  0  0
 20 38  1  0  0  0  0
 39 40  1  0  0  0  0
 40 41  1  0  0  0  0
 39 42  1  0  0  0  0
 40 42  1  0  0  0  0
 41 43  1  0  0  0  0
 40 44  1  0  0  0  0
 41 44  1  0  0  0  0
 43 44  1  0  0  0  0
 44 45  1  0  0  0  0
 45 46  1  0  0  0  0
 43 47  1  0  0  0  0
 44 47  1  0  0  0  0
 46 48  1  0  0  0  0
 42 49  1  0  0  0  0
 42 50  1  0  0  0  0
 49 50  1  0  0  0  0
 43 51  1  0  0  0  0
 47 51  1  0  0  0  0
 50 51  1  0  0  0  0
 49 52  1  0  0  0  0
 50 52  1  0  0  0  0
 51 53  1  0  0  0  0
 47 54  1  0  0  0  0
 51 54  1  0  0  0  0
 53 54  1  0  0  0  0
 47 55  1  0  0  0  0
 54 55  1  0  0  0  0
 48 56  1  0  0  0  0
 55 56  1  0  0  0  0
 54 57  1  0  0  0  0
 55 57  1  0  0  0  0
 56 58  1  0  0  0  0
 52 59  1  0  0  0  0
 52 60  1  0  0  0  0
 59 60  1  0  0  0  0
 53 61  1  0  0  0  0
 60 61  1  0  0  0  0
 59 62  1  0  0  0  0
 60 62  1  0  0  0  0
 61 62  1  0  0  0  0
 61 63  1  0  0  0  0
 53 64  1  0  0  0  0
 57 64  1  0  0  0  0
 61 64  1  0  0  0  0
 63 64  1  0  0  0  0
 57 65  1  0  0  0  0
 58 66  1  0  0  0  0
 65 66  1  0  0  0  0
 63 67  1  0  0  0  0
 64 67  1  0  0  0  0
 66 68  1  0  0  0  0
 57 69  1  0  0  0  0
 65 69  1  0  0  0  0
 62 70  1  0  0  0  0
 69 70  1  0  0  0  0
 63 71  1  0  0  0  0
 70 71  1  0  0  0  0
 65 72  1  0  0  0  0
 69 72  1  0  0  0  0
 70 72  1  0  0  0  0
 71 72  1  0  0  0  0
 71 73  1  0  0  0  0
 63 74  1  0  0  0  0
 71 74  1  0  0  0  0
 73 74  1  0  0  0  0
 67 75  1  0  0  0  0
 74 75  1  0  0  0  0
 67 76  1  0  0  0  0
 68 76  1  0  0  0  0
 75 76  1  0  0  0  0
 73 77  1  0  0  0  0
 74 77  1  0  0  0  0
 75 77  1  0  0  0  0
 75 78  1  0  0  0  0
 76 78  1  0  0  0  0
 77 78  1  0  0  0  0
 39 79  1  0  0  0  0
 39 80  1  0  0  0  0
 40 80  1  0  0  0  0
 41 81  1  0  0  0  0
 45 82  1  0  0  0  0
 46 83  1  0  0  0  0
 48 84  1  0  0  0  0
 49 85  1  0  0  0  0
 58 86  1  0  0  0  0
 59 87  1  0  0  0  0
 68 88  1  0  0  0  0
 69 89  1  0  0  0  0
 72 90  1  0  0  0  0
 73 91  1  0  0  0  0
 77 92  1  0  0  0  0
 78 93  1  0  0  0  0
M  END
