 xtb: 6.7.1 (edcfbbe)
          09242620033D

 60110  0     0  0            999 V2000
   -5.8476    3.5114    0.4773 B   0  0  0  0  0  0  0  0  0  0  0  0
   -5.8526    1.8279    0.1371 B   0  0  0  0  0  0  0  0  0  0  0  0
   -4.3899    4.3410    0.0645 B   0  0  0  0  0  0  0  0  0  0  0  0
   -4.3953    2.6617    0.2404 B   0  0  0  0  0  0  0  0  0  0  0  0
   -4.3980    0.9660    0.3532 B   0  0  0  0  0  0  0  0  0  0  0  0
   -5.8606   -1.5700    0.1821 B   0  0  0  0  0  0  0  0  0  0  0  0
   -5.8646   -3.2418    0.5766 B   0  0  0  0  0  0  0  0  0  0  0  0
   -4.4021   -0.7088    0.3770 B   0  0  0  0  0  0  0  0  0  0  0  0
   -4.4077   -2.4070    0.3191 B   0  0  0  0  0  0  0  0  0  0  0  0
   -4.4105   -4.0912    0.1956 B   0  0  0  0  0  0  0  0  0  0  0  0
   -2.9201    3.5126    0.1920 B   0  0  0  0  0  0  0  0  0  0  0  0
   -2.9273    1.8068    0.3723 B   0  0  0  0  0  0  0  0  0  0  0  0
   -1.4597    4.3420    0.4241 B   0  0  0  0  0  0  0  0  0  0  0  0
   -1.4628    2.6562    0.3255 B   0  0  0  0  0  0  0  0  0  0  0  0
   -1.4675    0.9603    0.2419 B   0  0  0  0  0  0  0  0  0  0  0  0
   -2.9358   -1.5557    0.4218 B   0  0  0  0  0  0  0  0  0  0  0  0
   -2.9366   -3.2665    0.2987 B   0  0  0  0  0  0  0  0  0  0  0  0
   -1.4716   -0.7210    0.2668 B   0  0  0  0  0  0  0  0  0  0  0  0
   -1.4753   -2.4130    0.4121 B   0  0  0  0  0  0  0  0  0  0  0  0
   -1.4806   -4.0947    0.5657 B   0  0  0  0  0  0  0  0  0  0  0  0
    0.0057    3.5045    0.4105 B   0  0  0  0  0  0  0  0  0  0  0  0
    0.0013    1.7980    0.1849 B   0  0  0  0  0  0  0  0  0  0  0  0
    1.4728    4.3348    0.4238 B   0  0  0  0  0  0  0  0  0  0  0  0
    1.4675    2.6489    0.3240 B   0  0  0  0  0  0  0  0  0  0  0  0
    1.4636    0.9531    0.2397 B   0  0  0  0  0  0  0  0  0  0  0  0
   -0.0070   -1.5674    0.2328 B   0  0  0  0  0  0  0  0  0  0  0  0
   -0.0110   -3.2660    0.5163 B   0  0  0  0  0  0  0  0  0  0  0  0
    1.4595   -0.7283    0.2648 B   0  0  0  0  0  0  0  0  0  0  0  0
    1.4550   -2.4203    0.4097 B   0  0  0  0  0  0  0  0  0  0  0  0
    1.4521   -4.1020    0.5637 B   0  0  0  0  0  0  0  0  0  0  0  0
    2.9312    3.4983    0.1894 B   0  0  0  0  0  0  0  0  0  0  0  0
    2.9302    1.7924    0.3676 B   0  0  0  0  0  0  0  0  0  0  0  0
    4.4024    4.3191    0.0575 B   0  0  0  0  0  0  0  0  0  0  0  0
    4.3998    2.6398    0.2339 B   0  0  0  0  0  0  0  0  0  0  0  0
    4.3942    0.9442    0.3477 B   0  0  0  0  0  0  0  0  0  0  0  0
    2.9221   -1.5702    0.4182 B   0  0  0  0  0  0  0  0  0  0  0  0
    2.9144   -3.2811    0.2967 B   0  0  0  0  0  0  0  0  0  0  0  0
    4.3901   -0.7305    0.3723 B   0  0  0  0  0  0  0  0  0  0  0  0
    4.3873   -2.4287    0.3147 B   0  0  0  0  0  0  0  0  0  0  0  0
    4.3815   -4.1128    0.1909 B   0  0  0  0  0  0  0  0  0  0  0  0
    5.8592    3.4824    0.4675 B   0  0  0  0  0  0  0  0  0  0  0  0
    5.8554    1.7991    0.1300 B   0  0  0  0  0  0  0  0  0  0  0  0
    5.8467   -1.5991    0.1770 B   0  0  0  0  0  0  0  0  0  0  0  0
    5.8429   -3.2707    0.5696 B   0  0  0  0  0  0  0  0  0  0  0  0
   -6.7774    4.0913    0.8970 H   0  0  0  0  0  0  0  0  0  0  0  0
   -6.8116    1.3396   -0.3222 H   0  0  0  0  0  0  0  0  0  0  0  0
   -4.4567    5.4400   -0.3462 H   0  0  0  0  0  0  0  0  0  0  0  0
   -6.8156   -1.0920   -0.2961 H   0  0  0  0  0  0  0  0  0  0  0  0
   -6.7987   -3.8031    1.0116 H   0  0  0  0  0  0  0  0  0  0  0  0
   -4.4815   -5.2030   -0.1784 H   0  0  0  0  0  0  0  0  0  0  0  0
   -1.4749    5.5019    0.6198 H   0  0  0  0  0  0  0  0  0  0  0  0
   -1.5028   -5.2442    0.8144 H   0  0  0  0  0  0  0  0  0  0  0  0
    1.4955    5.4943    0.6205 H   0  0  0  0  0  0  0  0  0  0  0  0
    1.4701   -5.2519    0.8107 H   0  0  0  0  0  0  0  0  0  0  0  0
    4.4754    5.4178   -0.3532 H   0  0  0  0  0  0  0  0  0  0  0  0
    4.4481   -5.2252   -0.1823 H   0  0  0  0  0  0  0  0  0  0  0  0
    6.7906    4.0608    0.8857 H   0  0  0  0  0  0  0  0  0  0  0  0
    6.8094    1.3039   -0.3323 H   0  0  0  0  0  0  0  0  0  0  0  0
    6.8016   -1.1239   -0.3041 H   0  0  0  0  0  0  0  0  0  0  0  0
    6.7727   -3.8395    1.0040 H   0  0  0  0  0  0  0  0  0  0  0  0
  1  2  1  0  0  0  0
  1  3  1  0  0  0  0
  1  4  1  0  0  0  0
  2  4  1  0  0  0  0
  3  4  1  0  0  0  0
  2  5  1  0  0  0  0
  4  5  1  0  0  0  0
  6  7  1  0  0  0  0
  5  8  1  0  0  0  0
  6  8  1  0  0  0  0
  6  9  1  0  0  0  0
  7  9  1  0  0  0  0
  8  9  1  0  0  0  0
  7 10  1  0  0  0  0
  9 10  1  0  0  0  0
  3 11  1  0  0  0  0
  4 11  1  0  0  0  0
  4 12  1  0  0  0  0
  5 12  1  0  0  0  0
 11 12  1  0  0  0  0
 11 13  1  0  0  0  0
 11 14  1  0  0  0  0
 12 14  1  0  0  0  0
 13 14  1  0  0  0  0
 12 15  1  0  0  0  0
 14 15  1  0  0  0  0
  8 16  1  0  0  0  0
  9 16  1  0  0  0  0
  9 17  1  0  0  0  0
 10 17  1  0  0  0  0
 16 17  1  0  0  0  0
 15 18  1  0  0  0  0
 16 18  1  0  0  0  0
 16 19  1  0  0  0  0
 17 19  1  0  0  0  0
 18 19  1  0  0  0  0
 17 20  1  0  0  0  0
 19 20  1  0  0  0  0
 13 21  1  0  0  0  0
 14 21  1  0  0  0  0
 14 22  1  0  0  0  0
 15 22  1  0  0  0  0
 21 22  1  0  0  0  0
 21 23  1  0  0  0  0
 21 24  1  0  0  0  0
 22 24  1  0  0  0  0
 23 24  1  0  0  0  0
 22 25  1  0  0  0  0
 24 25  1  0  0  0  0
 18 26  1  0  0  0  0
 19 26  1  0  0  0  0
 19 27  1  0  0  0  0
 20 27  1  0  0  0  0
 26 27  1  0  0  0  0
 25 28  1  0  0  0  0
 26 28  1  0  0  0  0
 26 29  1  0  0  0  0
 27 29  1  0  0  0  0
 28 29  1  0  0  0  0
 27 30  1  0  0  0  0
 29 30  1  0  0  0  0
 23 31  1  0  0  0  0
 24 31  1  0  0  0  0
 24 32  1  0  0  0  0
 25 32  1  0  0  0  0
 31 32  1  0  0  0  0
 31 33  1  0  0  0  0
 31 34  1  0  0  0  0
 32 34  1  0  0  0  0
 33 34  1  0  0  0  0
 32 35  1  0  0  0  0
 34 35  1  0  0  0  0
 28 36  1  0  0  0  0
 29 36  1  0  0  0  0
 29 37  1  0  0  0  0
 30 37  1  0  0  0  0
 36 37  1  0  0  0  0
 35 38  1  0  0  0  0
 36 38  1  0  0  0  0
 36 39  1  0  0  0  0
 37 39  1  0  0  0  0
 38 39  1  0  0  0  0
 37 40  1  0  0  0  0
 39 40  1  0  0  0  0
 33 41  1  0  0  0  0
 34 41  1  0  0  0  0
 34 42  1  0  0  0  0
 35 42  1  0  0  0  0
 41 42  1  0  0  0  0
 38 43  1  0  0  0  0
 39 43  1  0  0  0  0
 39 44  1  0  0  0  0
 40 44  1  0  0  0  0
 43 44  1  0  0  0  0
  1 45  1  0  0  0  0
  2 46  1  0  0  0  0
  3 47  1  0  0  0  0
  6 48  1  0  0  0  0
  7 49  1  0  0  0  0
 10 50  1  0  0  0  0
 13 51  1  0  0  0  0
 20 52  1  0  0  0  0
 23 53  1  0  0  0  0
 30 54  1  0  0  0  0
 33 55  1  0  0  0  0
 40 56  1  0  0  0  0
 41 57  1  0  0  0  0
 42 58  1  0  0  0  0
 43 59  1  0  0  0  0
 44 60  1  0  0  0  0
M  END
