 xtb: 6.7.1 (edcfbbe)
          09232617423D

 35 37  0     0  0            999 V2000
   -5.6750   -0.7818   -0.1104 C   0  0  0  0  0  0  0  0  0  0  0  0
   -4.3049   -0.1963   -0.2423 C   0  0  0  0  0  0  0  0  0  0  0  0
   -3.1885   -0.9363    0.0059 C   0  0  0  0  0  0  0  0  0  0  0  0
   -1.8737   -0.4089   -0.1024 C   0  0  0  0  0  0  0  0  0  0  0  0
   -0.8712   -1.2319    0.1595 N   0  0  0  0  0  0  0  0  0  0  0  0
    0.3982   -0.8820    0.1169 C   0  0  0  0  0  0  0  0  0  0  0  0
    1.3642   -1.8822    0.4247 C   0  0  0  0  0  0  0  0  0  0  0  0
    2.6941   -1.6214    0.4241 C   0  0  0  0  0  0  0  0  0  0  0  0
    3.1980   -0.3188    0.1201 C   0  0  0  0  0  0  0  0  0  0  0  0
    4.5140   -0.0615    0.1408 N   0  0  0  0  0  0  0  0  0  0  0  0
    5.0124    1.2849   -0.0176 C   0  0  0  0  0  0  0  0  0  0  0  0
    5.4845   -1.1178    0.3183 C   0  0  0  0  0  0  0  0  0  0  0  0
    2.2560    0.6807   -0.1954 C   0  0  0  0  0  0  0  0  0  0  0  0
    0.9056    0.4169   -0.2041 C   0  0  0  0  0  0  0  0  0  0  0  0
   -0.1829    1.7119   -0.6299 S   0  0  0  0  0  0  0  0  0  0  0  0
   -1.7465    0.9608   -0.4880 C   0  0  0  0  0  0  0  0  0  0  0  0
   -2.8682    1.7159   -0.7533 C   0  0  0  0  0  0  0  0  0  0  0  0
   -4.1527    1.1717   -0.6393 C   0  0  0  0  0  0  0  0  0  0  0  0
   -5.2284    1.9293   -0.8989 N   0  0  0  0  0  0  0  0  0  0  0  0
   -5.6121   -1.8197    0.2016 H   0  0  0  0  0  0  0  0  0  0  0  0
   -6.2056   -0.7441   -1.0618 H   0  0  0  0  0  0  0  0  0  0  0  0
   -6.2579   -0.2381    0.6330 H   0  0  0  0  0  0  0  0  0  0  0  0
   -3.2618   -1.9707    0.3020 H   0  0  0  0  0  0  0  0  0  0  0  0
    0.9840   -2.8615    0.6666 H   0  0  0  0  0  0  0  0  0  0  0  0
    3.3789   -2.4117    0.6800 H   0  0  0  0  0  0  0  0  0  0  0  0
    6.0619    1.3183    0.2618 H   0  0  0  0  0  0  0  0  0  0  0  0
    4.4700    1.9756    0.6292 H   0  0  0  0  0  0  0  0  0  0  0  0
    4.9206    1.6226   -1.0534 H   0  0  0  0  0  0  0  0  0  0  0  0
    6.4756   -0.7398    0.0826 H   0  0  0  0  0  0  0  0  0  0  0  0
    5.2763   -1.9531   -0.3511 H   0  0  0  0  0  0  0  0  0  0  0  0
    5.4918   -1.4811    1.3491 H   0  0  0  0  0  0  0  0  0  0  0  0
    2.5770    1.6750   -0.4580 H   0  0  0  0  0  0  0  0  0  0  0  0
   -2.7565    2.7487   -1.0494 H   0  0  0  0  0  0  0  0  0  0  0  0
   -5.1199    2.8890   -1.1809 H   0  0  0  0  0  0  0  0  0  0  0  0
   -6.1574    1.5577   -0.8050 H   0  0  0  0  0  0  0  0  0  0  0  0
  1  2  1  0  0  0  0
  2  3  2  0  0  0  0
  3  4  4  0  0  0  0
  4  5  4  0  0  0  0
  5  6  4  0  0  0  0
  6  7  1  0  0  0  0
  7  8  2  0  0  0  0
  8  9  1  0  0  0  0
  9 10  4  0  0  0  0
 10 11  1  0  0  0  0
 10 12  1  0  0  0  0
  9 13  4  0  0  0  0
  6 14  1  0  0  0  0
 13 14  4  0  0  0  0
 14 15  1  0  0  0  0
  4 16  1  0  0  0  0
 15 16  1  0  0  0  0
 16 17  4  0  0  0  0
  2 18  1  0  0  0  0
 17 18  4  0  0  0  0
 18 19  4  0  0  0  0
  1 20  1  0  0  0  0
  1 21  1  0  0  0  0
  1 22  1  0  0  0  0
  3 23  1  0  0  0  0
  7 24  1  0  0  0  0
  8 25  1  0  0  0  0
 11 26  1  0  0  0  0
 11 27  1  0  0  0  0
 11 28  1  0  0  0  0
 12 29  1  0  0  0  0
 12 30  1  0  0  0  0
 12 31  1  0  0  0  0
 13 32  1  0  0  0  0
 17 33  1  0  0  0  0
 19 34  1  0  0  0  0
 19 35  1  0  0  0  0
M  CHG  1   1   1
M  END
