 xtb: 6.7.1pre (5071a88)
          08312620233D

 81112  0     0  0            999 V2000
   -4.4090    0.3067    2.4221 O   0  0  0  0  0  0  0  0  0  0  0  0
   -3.3192    0.2687    2.9711 C   0  0  0  0  0  0  0  0  0  0  0  0
   -2.9477    0.8249    4.1643 N   0  0  0  0  0  0  0  0  0  0  0  0
   -1.6332    0.7211    4.5261 C   0  0  0  0  0  0  0  0  0  0  0  0
   -1.1697    1.2995    5.4975 O   0  0  0  0  0  0  0  0  0  0  0  0
   -0.9204   -0.1108    3.6463 N   0  0  0  0  0  0  0  0  0  0  0  0
    0.4973   -0.1534    3.5862 C   0  0  0  0  0  0  0  0  0  0  0  0
    1.2666    1.0124    3.6525 C   0  0  0  0  0  0  0  0  0  0  0  0
    2.6568    0.9456    3.5323 C   0  0  0  0  0  0  0  0  0  0  0  0
    3.2828   -0.2831    3.3301 C   0  0  0  0  0  0  0  0  0  0  0  0
    2.5204   -1.4462    3.2435 C   0  0  0  0  0  0  0  0  0  0  0  0
    1.1309   -1.3808    3.3644 C   0  0  0  0  0  0  0  0  0  0  0  0
   -1.8514   -0.5145    2.3121 S   0  0  0  0  0  0  0  0  0  0  0  0
   -2.0726   -1.9445    2.2906 O   0  0  0  0  0  0  0  0  0  0  0  0
   -1.4284    0.2543    1.1614 O   0  0  0  0  0  0  0  0  0  0  0  0
   -3.5794    1.3986    4.6971 H   0  0  0  0  0  0  0  0  0  0  0  0
    0.8021    1.9840    3.7968 H   0  0  0  0  0  0  0  0  0  0  0  0
    3.2508    1.8544    3.5917 H   0  0  0  0  0  0  0  0  0  0  0  0
    4.3648   -0.3334    3.2342 H   0  0  0  0  0  0  0  0  0  0  0  0
    3.0064   -2.4045    3.0778 H   0  0  0  0  0  0  0  0  0  0  0  0
    0.5521   -2.2990    3.2906 H   0  0  0  0  0  0  0  0  0  0  0  0
   -7.5000   -4.5000    0.0000 B   0  0  0  0  0  0  0  0  0  0  0  0
   -4.5000   -4.5000    0.0000 B   0  0  0  0  0  0  0  0  0  0  0  0
   -1.5000   -4.5000    0.0000 B   0  0  0  0  0  0  0  0  0  0  0  0
    1.5000   -4.5000    0.0000 B   0  0  0  0  0  0  0  0  0  0  0  0
    4.5000   -4.5000    0.0000 B   0  0  0  0  0  0  0  0  0  0  0  0
    7.5000   -4.5000    0.0000 B   0  0  0  0  0  0  0  0  0  0  0  0
   -7.5000   -3.0000    0.0000 B   0  0  0  0  0  0  0  0  0  0  0  0
   -4.5000   -3.0000    0.0000 B   0  0  0  0  0  0  0  0  0  0  0  0
   -1.5000   -3.0000    0.0000 B   0  0  0  0  0  0  0  0  0  0  0  0
    1.5000   -3.0000    0.0000 B   0  0  0  0  0  0  0  0  0  0  0  0
    4.5000   -3.0000    0.0000 B   0  0  0  0  0  0  0  0  0  0  0  0
    7.5000   -3.0000    0.0000 B   0  0  0  0  0  0  0  0  0  0  0  0
   -7.5000   -1.5000    0.0000 B   0  0  0  0  0  0  0  0  0  0  0  0
   -4.5000   -1.5000    0.0000 B   0  0  0  0  0  0  0  0  0  0  0  0
   -1.5000   -1.5000    0.0000 B   0  0  0  0  0  0  0  0  0  0  0  0
    1.5000   -1.5000    0.0000 B   0  0  0  0  0  0  0  0  0  0  0  0
    4.5000   -1.5000    0.0000 B   0  0  0  0  0  0  0  0  0  0  0  0
    7.5000   -1.5000    0.0000 B   0  0  0  0  0  0  0  0  0  0  0  0
   -7.5000    0.0000    0.0000 B   0  0  0  0  0  0  0  0  0  0  0  0
   -4.5000    0.0000    0.0000 B   0  0  0  0  0  0  0  0  0  0  0  0
   -1.5000    0.0000    0.0000 B   0  0  0  0  0  0  0  0  0  0  0  0
    1.5000    0.0000    0.0000 B   0  0  0  0  0  0  0  0  0  0  0  0
    4.5000    0.0000    0.0000 B   0  0  0  0  0  0  0  0  0  0  0  0
    7.5000    0.0000    0.0000 B   0  0  0  0  0  0  0  0  0  0  0  0
   -7.5000    1.5000    0.0000 B   0  0  0  0  0  0  0  0  0  0  0  0
   -4.5000    1.5000    0.0000 B   0  0  0  0  0  0  0  0  0  0  0  0
   -1.5000    1.5000    0.0000 B   0  0  0  0  0  0  0  0  0  0  0  0
    1.5000    1.5000    0.0000 B   0  0  0  0  0  0  0  0  0  0  0  0
    4.5000    1.5000    0.0000 B   0  0  0  0  0  0  0  0  0  0  0  0
    7.5000    1.5000    0.0000 B   0  0  0  0  0  0  0  0  0  0  0  0
   -7.5000    3.0000    0.0000 B   0  0  0  0  0  0  0  0  0  0  0  0
   -4.5000    3.0000    0.0000 B   0  0  0  0  0  0  0  0  0  0  0  0
   -1.5000    3.0000    0.0000 B   0  0  0  0  0  0  0  0  0  0  0  0
    1.5000    3.0000    0.0000 B   0  0  0  0  0  0  0  0  0  0  0  0
    4.5000    3.0000    0.0000 B   0  0  0  0  0  0  0  0  0  0  0  0
    7.5000    3.0000    0.0000 B   0  0  0  0  0  0  0  0  0  0  0  0
   -7.5000    4.5000    0.0000 B   0  0  0  0  0  0  0  0  0  0  0  0
   -4.5000    4.5000    0.0000 B   0  0  0  0  0  0  0  0  0  0  0  0
   -1.5000    4.5000    0.0000 B   0  0  0  0  0  0  0  0  0  0  0  0
    1.5000    4.5000    0.0000 B   0  0  0  0  0  0  0  0  0  0  0  0
    4.5000    4.5000    0.0000 B   0  0  0  0  0  0  0  0  0  0  0  0
    7.5000    4.5000    0.0000 B   0  0  0  0  0  0  0  0  0  0  0  0
   -6.0000   -3.7500    0.0000 B   0  0  0  0  0  0  0  0  0  0  0  0
   -3.0000   -3.7500    0.0000 B   0  0  0  0  0  0  0  0  0  0  0  0
    0.0000   -3.7500    0.0000 B   0  0  0  0  0  0  0  0  0  0  0  0
    3.0000   -3.7500    0.0000 B   0  0  0  0  0  0  0  0  0  0  0  0
    6.0000   -3.7500    0.0000 B   0  0  0  0  0  0  0  0  0  0  0  0
   -6.0000    3.7500    0.0000 B   0  0  0  0  0  0  0  0  0  0  0  0
   -3.0000    3.7500    0.0000 B   0  0  0  0  0  0  0  0  0  0  0  0
    0.0000    3.7500    0.0000 B   0  0  0  0  0  0  0  0  0  0  0  0
    3.0000    3.7500    0.0000 B   0  0  0  0  0  0  0  0  0  0  0  0
    6.0000    3.7500    0.0000 B   0  0  0  0  0  0  0  0  0  0  0  0
   -6.0000    0.0000    0.0000 B   0  0  0  0  0  0  0  0  0  0  0  0
   -8.6000   -4.5000    0.0000 H   0  0  0  0  0  0  0  0  0  0  0  0
   -8.6000   -1.5000    0.0000 H   0  0  0  0  0  0  0  0  0  0  0  0
   -8.6000    1.5000    0.0000 H   0  0  0  0  0  0  0  0  0  0  0  0
   -8.6000    4.5000    0.0000 H   0  0  0  0  0  0  0  0  0  0  0  0
    8.6000   -4.5000    0.0000 H   0  0  0  0  0  0  0  0  0  0  0  0
    8.6000   -1.5000    0.0000 H   0  0  0  0  0  0  0  0  0  0  0  0
    8.6000    1.5000    0.0000 H   0  0  0  0  0  0  0  0  0  0  0  0
  1  2  4  0  0  0  0
  2  3  1  0  0  0  0
  3  4  1  0  0  0  0
  4  5  2  0  0  0  0
  4  6  1  0  0  0  0
  6  7  1  0  0  0  0
  7  8  4  0  0  0  0
  8  9  4  0  0  0  0
  9 10  4  0  0  0  0
 10 11  4  0  0  0  0
  7 12  4  0  0  0  0
 11 12  4  0  0  0  0
  2 13  1  0  0  0  0
  6 13  1  0  0  0  0
 13 14  2  0  0  0  0
 13 15  1  0  0  0  0
  3 16  1  0  0  0  0
  8 17  1  0  0  0  0
  9 18  1  0  0  0  0
 10 19  1  0  0  0  0
 11 20  1  0  0  0  0
 12 21  1  0  0  0  0
 22 28  1  0  0  0  0
 23 29  1  0  0  0  0
 24 30  1  0  0  0  0
 25 31  1  0  0  0  0
 26 32  1  0  0  0  0
 27 33  1  0  0  0  0
 28 34  1  0  0  0  0
 29 35  1  0  0  0  0
 30 36  1  0  0  0  0
 31 37  1  0  0  0  0
 32 38  1  0  0  0  0
 33 39  1  0  0  0  0
 34 40  1  0  0  0  0
 35 41  1  0  0  0  0
 15 42  1  0  0  0  0
 36 42  1  0  0  0  0
 37 43  2  0  0  0  0
 38 44  2  0  0  0  0
 39 45  1  0  0  0  0
 40 46  1  0  0  0  0
 41 47  1  0  0  0  0
 42 48  1  0  0  0  0
 43 49  2  0  0  0  0
 44 50  2  0  0  0  0
 45 51  2  0  0  0  0
 46 52  1  0  0  0  0
 47 53  1  0  0  0  0
 48 54  1  0  0  0  0
 49 55  1  0  0  0  0
 50 56  1  0  0  0  0
 51 57  1  0  0  0  0
 52 58  1  0  0  0  0
 53 59  1  0  0  0  0
 54 60  1  0  0  0  0
 55 61  1  0  0  0  0
 56 62  1  0  0  0  0
 57 63  2  0  0  0  0
 22 64  1  0  0  0  0
 23 64  1  0  0  0  0
 28 64  1  0  0  0  0
 29 64  1  0  0  0  0
 23 65  1  0  0  0  0
 24 65  1  0  0  0  0
 29 65  1  0  0  0  0
 30 65  1  0  0  0  0
 24 66  1  0  0  0  0
 25 66  1  0  0  0  0
 30 66  1  0  0  0  0
 31 66  1  0  0  0  0
 25 67  1  0  0  0  0
 26 67  1  0  0  0  0
 31 67  1  0  0  0  0
 32 67  1  0  0  0  0
 26 68  1  0  0  0  0
 27 68  1  0  0  0  0
 32 68  1  0  0  0  0
 33 68  1  0  0  0  0
 52 69  1  0  0  0  0
 53 69  1  0  0  0  0
 58 69  1  0  0  0  0
 59 69  1  0  0  0  0
 53 70  1  0  0  0  0
 54 70  1  0  0  0  0
 59 70  1  0  0  0  0
 60 70  1  0  0  0  0
 54 71  1  0  0  0  0
 55 71  1  0  0  0  0
 60 71  1  0  0  0  0
 61 71  1  0  0  0  0
 55 72  1  0  0  0  0
 56 72  1  0  0  0  0
 61 72  1  0  0  0  0
 62 72  1  0  0  0  0
 56 73  1  0  0  0  0
 57 73  1  0  0  0  0
 62 73  1  0  0  0  0
 63 73  1  0  0  0  0
 34 74  1  0  0  0  0
 35 74  1  0  0  0  0
 40 74  1  0  0  0  0
 41 74  1  0  0  0  0
 46 74  1  0  0  0  0
 47 74  1  0  0  0  0
 22 75  1  0  0  0  0
 34 76  1  0  0  0  0
 46 77  1  0  0  0  0
 58 78  1  0  0  0  0
 27 79  1  0  0  0  0
 39 80  1  0  0  0  0
 51 81  1  0  0  0  0
M  END
