 xtb: 6.7.1pre (5071a88)
          08312621153D

 81136  0     0  0            999 V2000
   -4.4090    0.3067    4.4607 O   0  0  0  0  0  0  0  0  0  0  0  0
   -3.3192    0.2687    5.0097 C   0  0  0  0  0  0  0  0  0  0  0  0
   -2.9477    0.8249    6.2029 N   0  0  0  0  0  0  0  0  0  0  0  0
   -1.6332    0.7211    6.5647 C   0  0  0  0  0  0  0  0  0  0  0  0
   -1.1697    1.2995    7.5361 O   0  0  0  0  0  0  0  0  0  0  0  0
   -0.9204   -0.1108    5.6849 N   0  0  0  0  0  0  0  0  0  0  0  0
    0.4973   -0.1534    5.6248 C   0  0  0  0  0  0  0  0  0  0  0  0
    1.2666    1.0124    5.6911 C   0  0  0  0  0  0  0  0  0  0  0  0
    2.6568    0.9456    5.5709 C   0  0  0  0  0  0  0  0  0  0  0  0
    3.2828   -0.2831    5.3687 C   0  0  0  0  0  0  0  0  0  0  0  0
    2.5204   -1.4462    5.2821 C   0  0  0  0  0  0  0  0  0  0  0  0
    1.1309   -1.3808    5.4030 C   0  0  0  0  0  0  0  0  0  0  0  0
   -1.8514   -0.5145    4.3507 S   0  0  0  0  0  0  0  0  0  0  0  0
   -2.0726   -1.9445    4.3292 O   0  0  0  0  0  0  0  0  0  0  0  0
   -1.4284    0.2543    3.2000 O   0  0  0  0  0  0  0  0  0  0  0  0
   -3.5794    1.3986    6.7357 H   0  0  0  0  0  0  0  0  0  0  0  0
    0.8021    1.9840    5.8353 H   0  0  0  0  0  0  0  0  0  0  0  0
    3.2508    1.8544    5.6303 H   0  0  0  0  0  0  0  0  0  0  0  0
    4.3648   -0.3334    5.2728 H   0  0  0  0  0  0  0  0  0  0  0  0
    3.0064   -2.4045    5.1163 H   0  0  0  0  0  0  0  0  0  0  0  0
    0.5521   -2.2990    5.3291 H   0  0  0  0  0  0  0  0  0  0  0  0
   -6.3511   -2.8545   -0.3396 B   0  0  0  0  0  0  0  0  0  0  0  0
   -3.8632   -3.4276    0.8712 B   0  0  0  0  0  0  0  0  0  0  0  0
   -1.0552   -4.1651    1.9793 B   0  0  0  0  0  0  0  0  0  0  0  0
    1.6853   -4.2318    1.3549 B   0  0  0  0  0  0  0  0  0  0  0  0
    2.9703   -3.6923    0.6219 B   0  0  0  0  0  0  0  0  0  0  0  0
    5.9076   -3.8486   -0.3800 B   0  0  0  0  0  0  0  0  0  0  0  0
   -4.7612   -2.3307   -0.4078 B   0  0  0  0  0  0  0  0  0  0  0  0
   -2.6199   -2.2111    0.8442 B   0  0  0  0  0  0  0  0  0  0  0  0
   -1.2327   -2.3911    1.7792 B   0  0  0  0  0  0  0  0  0  0  0  0
    0.2814   -3.1446    1.2586 B   0  0  0  0  0  0  0  0  0  0  0  0
    3.1280   -2.1353    0.0337 B   0  0  0  0  0  0  0  0  0  0  0  0
    5.2824   -2.5807   -1.1427 B   0  0  0  0  0  0  0  0  0  0  0  0
   -4.3827   -1.0545   -1.3461 B   0  0  0  0  0  0  0  0  0  0  0  0
   -3.1924   -1.2685   -0.2398 B   0  0  0  0  0  0  0  0  0  0  0  0
   -0.7667   -0.9151    2.1471 B   0  0  0  0  0  0  0  0  0  0  0  0
    0.4341   -1.5098    0.8825 B   0  0  0  0  0  0  0  0  0  0  0  0
    4.2603   -1.2719   -0.6057 B   0  0  0  0  0  0  0  0  0  0  0  0
    6.8452   -2.4756   -0.8065 B   0  0  0  0  0  0  0  0  0  0  0  0
   -5.0072   -0.6437   -2.8496 B   0  0  0  0  0  0  0  0  0  0  0  0
   -3.1952    0.1543   -0.9257 B   0  0  0  0  0  0  0  0  0  0  0  0
   -0.9469    0.6233    2.2104 B   0  0  0  0  0  0  0  0  0  0  0  0
    0.0016   -0.0204    0.9084 B   0  0  0  0  0  0  0  0  0  0  0  0
    4.8754    0.2242   -0.5476 B   0  0  0  0  0  0  0  0  0  0  0  0
    5.8786   -1.0664   -1.1306 B   0  0  0  0  0  0  0  0  0  0  0  0
   -5.7672    0.8535   -2.9176 B   0  0  0  0  0  0  0  0  0  0  0  0
   -2.8971    1.6282   -0.7083 B   0  0  0  0  0  0  0  0  0  0  0  0
   -1.2399    2.1332    2.0889 B   0  0  0  0  0  0  0  0  0  0  0  0
    0.1883    1.5499    1.0540 B   0  0  0  0  0  0  0  0  0  0  0  0
    4.2581    1.5841    0.0647 B   0  0  0  0  0  0  0  0  0  0  0  0
    6.3075    0.4397   -1.6258 B   0  0  0  0  0  0  0  0  0  0  0  0
   -5.7341    1.7554   -1.4938 B   0  0  0  0  0  0  0  0  0  0  0  0
   -3.3469    2.9740   -0.1746 B   0  0  0  0  0  0  0  0  0  0  0  0
   -1.6646    3.6160    1.7973 B   0  0  0  0  0  0  0  0  0  0  0  0
   -0.0590    3.1640    1.3235 B   0  0  0  0  0  0  0  0  0  0  0  0
    2.9656    2.2589    0.6844 B   0  0  0  0  0  0  0  0  0  0  0  0
    5.7919    1.6725   -0.6985 B   0  0  0  0  0  0  0  0  0  0  0  0
   -6.6389    2.8000   -0.8422 B   0  0  0  0  0  0  0  0  0  0  0  0
   -4.4746    3.8873    0.5879 B   0  0  0  0  0  0  0  0  0  0  0  0
   -1.7771    5.1752    1.2154 B   0  0  0  0  0  0  0  0  0  0  0  0
    1.1754    4.4066    1.3290 B   0  0  0  0  0  0  0  0  0  0  0  0
    2.5938    3.9229    0.8796 B   0  0  0  0  0  0  0  0  0  0  0  0
    5.3509    2.9860   -0.0541 B   0  0  0  0  0  0  0  0  0  0  0  0
   -5.3190   -3.6348    0.4165 B   0  0  0  0  0  0  0  0  0  0  0  0
   -2.4877   -3.6329    1.6055 B   0  0  0  0  0  0  0  0  0  0  0  0
    0.3596   -4.7213    1.9063 B   0  0  0  0  0  0  0  0  0  0  0  0
    1.7215   -2.4162    0.7345 B   0  0  0  0  0  0  0  0  0  0  0  0
    4.3387   -3.4800   -0.0729 B   0  0  0  0  0  0  0  0  0  0  0  0
   -5.0953    2.8472   -0.3735 B   0  0  0  0  0  0  0  0  0  0  0  0
   -3.0345    4.3187    0.9326 B   0  0  0  0  0  0  0  0  0  0  0  0
   -0.2869    4.8951    1.4426 B   0  0  0  0  0  0  0  0  0  0  0  0
    1.4616    2.5482    0.9924 B   0  0  0  0  0  0  0  0  0  0  0  0
    4.0784    3.6198    0.5106 B   0  0  0  0  0  0  0  0  0  0  0  0
   -4.5957    0.5913   -1.8415 B   0  0  0  0  0  0  0  0  0  0  0  0
   -7.3684   -2.5027   -0.8103 H   0  0  0  0  0  0  0  0  0  0  0  0
   -4.9591   -1.3760   -3.7739 H   0  0  0  0  0  0  0  0  0  0  0  0
   -6.3246    1.2608   -3.8715 H   0  0  0  0  0  0  0  0  0  0  0  0
   -7.6134    3.4017   -0.5976 H   0  0  0  0  0  0  0  0  0  0  0  0
    6.3612   -4.9354   -0.3602 H   0  0  0  0  0  0  0  0  0  0  0  0
    8.0163   -2.4682   -0.9061 H   0  0  0  0  0  0  0  0  0  0  0  0
    6.9392    0.6146   -2.6128 H   0  0  0  0  0  0  0  0  0  0  0  0
  1  2  4  0  0  0  0
  2  3  1  0  0  0  0
  3  4  1  0  0  0  0
  4  5  2  0  0  0  0
  4  6  1  0  0  0  0
  6  7  1  0  0  0  0
  7  8  4  0  0  0  0
  8  9  4  0  0  0  0
  9 10  4  0  0  0  0
 10 11  4  0  0  0  0
  7 12  4  0  0  0  0
 11 12  4  0  0  0  0
  2 13  1  0  0  0  0
  6 13  1  0  0  0  0
 13 14  2  0  0  0  0
 13 15  1  0  0  0  0
  3 16  1  0  0  0  0
  8 17  1  0  0  0  0
  9 18  1  0  0  0  0
 10 19  1  0  0  0  0
 11 20  1  0  0  0  0
 12 21  1  0  0  0  0
 25 26  1  0  0  0  0
 22 28  1  0  0  0  0
 23 28  1  0  0  0  0
 23 29  1  0  0  0  0
 24 30  1  0  0  0  0
 29 30  1  0  0  0  0
 24 31  1  0  0  0  0
 25 31  1  0  0  0  0
 30 31  1  0  0  0  0
 26 32  1  0  0  0  0
 27 33  1  0  0  0  0
 28 34  1  0  0  0  0
 28 35  1  0  0  0  0
 29 35  1  0  0  0  0
 34 35  1  0  0  0  0
 30 36  1  0  0  0  0
 31 37  1  0  0  0  0
 36 37  1  0  0  0  0
 32 38  1  0  0  0  0
 33 38  1  0  0  0  0
 27 39  1  0  0  0  0
 33 39  1  0  0  0  0
 34 40  1  0  0  0  0
 34 41  1  0  0  0  0
 35 41  1  0  0  0  0
 15 42  1  0  0  0  0
 36 42  1  0  0  0  0
 36 43  1  0  0  0  0
 37 43  1  0  0  0  0
 42 43  1  0  0  0  0
 38 44  1  0  0  0  0
 33 45  1  0  0  0  0
 38 45  1  0  0  0  0
 39 45  1  0  0  0  0
 44 45  1  0  0  0  0
 40 46  1  0  0  0  0
 41 47  1  0  0  0  0
 42 48  1  0  0  0  0
 42 49  1  0  0  0  0
 43 49  1  0  0  0  0
 48 49  1  0  0  0  0
 44 50  1  0  0  0  0
 44 51  1  0  0  0  0
 45 51  1  0  0  0  0
 46 52  1  0  0  0  0
 47 53  2  0  0  0  0
 48 54  1  0  0  0  0
 48 55  1  0  0  0  0
 49 55  1  0  0  0  0
 54 55  1  0  0  0  0
 50 56  1  0  0  0  0
 44 57  1  0  0  0  0
 50 57  1  0  0  0  0
 51 57  1  0  0  0  0
 52 58  1  0  0  0  0
 53 59  1  0  0  0  0
 54 60  1  0  0  0  0
 55 61  1  0  0  0  0
 56 62  1  0  0  0  0
 61 62  1  0  0  0  0
 50 63  1  0  0  0  0
 57 63  1  0  0  0  0
 22 64  2  0  0  0  0
 23 64  1  0  0  0  0
 28 64  1  0  0  0  0
 23 65  1  0  0  0  0
 24 65  1  0  0  0  0
 29 65  1  0  0  0  0
 30 65  1  0  0  0  0
 24 66  1  0  0  0  0
 25 66  1  0  0  0  0
 31 66  1  0  0  0  0
 25 67  1  0  0  0  0
 26 67  1  0  0  0  0
 31 67  1  0  0  0  0
 32 67  1  0  0  0  0
 37 67  1  0  0  0  0
 26 68  1  0  0  0  0
 27 68  1  0  0  0  0
 32 68  1  0  0  0  0
 33 68  1  0  0  0  0
 52 69  1  0  0  0  0
 53 69  1  0  0  0  0
 58 69  1  0  0  0  0
 59 69  1  0  0  0  0
 53 70  1  0  0  0  0
 54 70  1  0  0  0  0
 59 70  1  0  0  0  0
 60 70  1  0  0  0  0
 54 71  1  0  0  0  0
 55 71  1  0  0  0  0
 60 71  1  0  0  0  0
 61 71  1  0  0  0  0
 49 72  1  0  0  0  0
 55 72  1  0  0  0  0
 56 72  1  0  0  0  0
 61 72  1  0  0  0  0
 62 72  1  0  0  0  0
 50 73  1  0  0  0  0
 56 73  1  0  0  0  0
 62 73  1  0  0  0  0
 63 73  1  0  0  0  0
 34 74  1  0  0  0  0
 40 74  1  0  0  0  0
 41 74  1  0  0  0  0
 46 74  1  0  0  0  0
 52 74  1  0  0  0  0
 22 75  1  0  0  0  0
 40 76  1  0  0  0  0
 46 77  1  0  0  0  0
 58 78  1  0  0  0  0
 27 79  1  0  0  0  0
 39 80  1  0  0  0  0
 51 81  1  0  0  0  0
M  END
