 xtb: 6.7.1pre (5071a88)
          09012620283D

 76112  0     0  0            999 V2000
   -4.4090    0.3067    7.4363 O   0  0  0  0  0  0  0  0  0  0  0  0
   -3.3192    0.2687    7.9854 C   0  0  0  0  0  0  0  0  0  0  0  0
   -2.9477    0.8249    9.1786 N   0  0  0  0  0  0  0  0  0  0  0  0
   -1.6332    0.7211    9.5404 C   0  0  0  0  0  0  0  0  0  0  0  0
   -1.1697    1.2995   10.5117 O   0  0  0  0  0  0  0  0  0  0  0  0
   -0.9204   -0.1108    8.6605 N   0  0  0  0  0  0  0  0  0  0  0  0
    0.4973   -0.1534    8.6005 C   0  0  0  0  0  0  0  0  0  0  0  0
    1.2666    1.0124    8.6668 C   0  0  0  0  0  0  0  0  0  0  0  0
    2.6568    0.9456    8.5466 C   0  0  0  0  0  0  0  0  0  0  0  0
    3.2828   -0.2831    8.3444 C   0  0  0  0  0  0  0  0  0  0  0  0
    2.5204   -1.4462    8.2578 C   0  0  0  0  0  0  0  0  0  0  0  0
    1.1309   -1.3808    8.3787 C   0  0  0  0  0  0  0  0  0  0  0  0
   -1.8514   -0.5145    7.3263 S   0  0  0  0  0  0  0  0  0  0  0  0
   -2.0726   -1.9445    7.3049 O   0  0  0  0  0  0  0  0  0  0  0  0
   -1.4284    0.2543    6.1757 O   0  0  0  0  0  0  0  0  0  0  0  0
   -3.5794    1.3986    9.7114 H   0  0  0  0  0  0  0  0  0  0  0  0
    0.8021    1.9840    8.8110 H   0  0  0  0  0  0  0  0  0  0  0  0
    3.2508    1.8544    8.6060 H   0  0  0  0  0  0  0  0  0  0  0  0
    4.3648   -0.3334    8.2484 H   0  0  0  0  0  0  0  0  0  0  0  0
    3.0064   -2.4045    8.0920 H   0  0  0  0  0  0  0  0  0  0  0  0
    0.5521   -2.2990    8.3048 H   0  0  0  0  0  0  0  0  0  0  0  0
   -4.7806   -2.6045    0.3173 B   0  0  0  0  0  0  0  0  0  0  0  0
   -4.5695   -1.3567   -0.6480 B   0  0  0  0  0  0  0  0  0  0  0  0
   -4.4639   -0.2474   -1.8829 B   0  0  0  0  0  0  0  0  0  0  0  0
   -3.3965   -2.6620   -0.5028 B   0  0  0  0  0  0  0  0  0  0  0  0
   -3.0380    0.1776   -1.4048 B   0  0  0  0  0  0  0  0  0  0  0  0
   -4.3909    0.3426   -0.1924 B   0  0  0  0  0  0  0  0  0  0  0  0
   -5.0310    1.4031    0.8192 B   0  0  0  0  0  0  0  0  0  0  0  0
   -4.6201    2.9864    0.9976 B   0  0  0  0  0  0  0  0  0  0  0  0
   -2.8089    0.5128    0.1995 B   0  0  0  0  0  0  0  0  0  0  0  0
   -3.2186    3.2275    1.7932 B   0  0  0  0  0  0  0  0  0  0  0  0
   -2.1611   -3.7758   -0.5843 B   0  0  0  0  0  0  0  0  0  0  0  0
   -1.8769   -2.2481   -0.9334 B   0  0  0  0  0  0  0  0  0  0  0  0
   -1.6972   -0.6133   -0.8358 B   0  0  0  0  0  0  0  0  0  0  0  0
   -0.5844   -3.2190   -0.8350 B   0  0  0  0  0  0  0  0  0  0  0  0
   -0.2198   -0.1484   -0.3118 B   0  0  0  0  0  0  0  0  0  0  0  0
   -1.3950    0.0358    0.8521 B   0  0  0  0  0  0  0  0  0  0  0  0
   -1.7757    1.6621    0.7592 B   0  0  0  0  0  0  0  0  0  0  0  0
   -1.8975    3.2370    0.8826 B   0  0  0  0  0  0  0  0  0  0  0  0
   -0.2153    1.0372    1.0697 B   0  0  0  0  0  0  0  0  0  0  0  0
   -0.7521    4.3480    0.5584 B   0  0  0  0  0  0  0  0  0  0  0  0
    0.8265   -4.1129   -0.7400 B   0  0  0  0  0  0  0  0  0  0  0  0
    0.9251   -2.5054   -0.7497 B   0  0  0  0  0  0  0  0  0  0  0  0
    1.2144   -0.9490   -0.5870 B   0  0  0  0  0  0  0  0  0  0  0  0
    2.2007   -3.4026   -0.1682 B   0  0  0  0  0  0  0  0  0  0  0  0
    2.6220   -0.1957   -0.2930 B   0  0  0  0  0  0  0  0  0  0  0  0
    1.2341    0.5516    0.1426 B   0  0  0  0  0  0  0  0  0  0  0  0
    1.1248    2.0009    1.0430 B   0  0  0  0  0  0  0  0  0  0  0  0
    0.5366    3.4372    0.6180 B   0  0  0  0  0  0  0  0  0  0  0  0
    2.4580    1.6726    0.0875 B   0  0  0  0  0  0  0  0  0  0  0  0
    1.2136    3.0171   -0.8530 B   0  0  0  0  0  0  0  0  0  0  0  0
    3.2202   -3.8508    1.1044 B   0  0  0  0  0  0  0  0  0  0  0  0
    3.6240   -2.6535    0.0637 B   0  0  0  0  0  0  0  0  0  0  0  0
    4.0250   -1.1219   -0.2366 B   0  0  0  0  0  0  0  0  0  0  0  0
    4.4174   -2.8355    1.4203 B   0  0  0  0  0  0  0  0  0  0  0  0
    5.3636   -0.2419   -0.6898 B   0  0  0  0  0  0  0  0  0  0  0  0
    4.1041    0.5310   -0.0135 B   0  0  0  0  0  0  0  0  0  0  0  0
    4.0181    2.3218   -0.0338 B   0  0  0  0  0  0  0  0  0  0  0  0
    2.8218    3.0968   -0.9129 B   0  0  0  0  0  0  0  0  0  0  0  0
    5.4220    1.4583   -0.1853 B   0  0  0  0  0  0  0  0  0  0  0  0
    4.2961    3.5501   -1.0140 B   0  0  0  0  0  0  0  0  0  0  0  0
   -5.1687   -3.0949    1.3107 H   0  0  0  0  0  0  0  0  0  0  0  0
   -5.7161   -2.0764   -0.3935 H   0  0  0  0  0  0  0  0  0  0  0  0
   -5.2640   -0.1207   -2.7417 H   0  0  0  0  0  0  0  0  0  0  0  0
   -5.7711    1.0074    1.6646 H   0  0  0  0  0  0  0  0  0  0  0  0
   -5.3645    3.8431    0.6720 H   0  0  0  0  0  0  0  0  0  0  0  0
   -3.2343    3.2250    2.9757 H   0  0  0  0  0  0  0  0  0  0  0  0
   -2.3593   -4.9262   -0.4732 H   0  0  0  0  0  0  0  0  0  0  0  0
   -0.8965    5.4755    0.2443 H   0  0  0  0  0  0  0  0  0  0  0  0
    0.8223   -5.2498   -1.0233 H   0  0  0  0  0  0  0  0  0  0  0  0
    0.5537    2.6943   -1.7837 H   0  0  0  0  0  0  0  0  0  0  0  0
    2.9703   -4.8176    1.7172 H   0  0  0  0  0  0  0  0  0  0  0  0
    5.2631   -2.5125    2.1565 H   0  0  0  0  0  0  0  0  0  0  0  0
    6.3848   -0.6467   -1.0956 H   0  0  0  0  0  0  0  0  0  0  0  0
    6.5032    1.8382    0.0650 H   0  0  0  0  0  0  0  0  0  0  0  0
    5.1389    4.2524   -1.4154 H   0  0  0  0  0  0  0  0  0  0  0  0
  1  2  2  0  0  0  0
  2  3  1  0  0  0  0
  3  4  1  0  0  0  0
  4  5  2  0  0  0  0
  4  6  1  0  0  0  0
  6  7  1  0  0  0  0
  7  8  4  0  0  0  0
  8  9  4  0  0  0  0
  9 10  4  0  0  0  0
 10 11  4  0  0  0  0
  7 12  4  0  0  0  0
 11 12  4  0  0  0  0
  2 13  1  0  0  0  0
  6 13  1  0  0  0  0
 13 14  2  0  0  0  0
 13 15  2  0  0  0  0
  3 16  1  0  0  0  0
  8 17  1  0  0  0  0
  9 18  1  0  0  0  0
 10 19  1  0  0  0  0
 11 20  1  0  0  0  0
 12 21  1  0  0  0  0
 22 23  1  0  0  0  0
 23 24  1  0  0  0  0
 22 25  1  0  0  0  0
 23 25  1  0  0  0  0
 24 26  1  0  0  0  0
 23 27  1  0  0  0  0
 24 27  1  0  0  0  0
 26 27  1  0  0  0  0
 27 28  1  0  0  0  0
 28 29  1  0  0  0  0
 26 30  1  0  0  0  0
 27 30  1  0  0  0  0
 29 31  1  0  0  0  0
 25 32  1  0  0  0  0
 25 33  1  0  0  0  0
 32 33  1  0  0  0  0
 26 34  1  0  0  0  0
 30 34  1  0  0  0  0
 33 34  1  0  0  0  0
 32 35  1  0  0  0  0
 33 35  1  0  0  0  0
 34 36  1  0  0  0  0
 30 37  1  0  0  0  0
 34 37  1  0  0  0  0
 36 37  1  0  0  0  0
 30 38  1  0  0  0  0
 37 38  1  0  0  0  0
 31 39  1  0  0  0  0
 38 39  1  0  0  0  0
 36 40  1  0  0  0  0
 37 40  1  0  0  0  0
 38 40  1  0  0  0  0
 39 41  1  0  0  0  0
 35 42  1  0  0  0  0
 35 43  1  0  0  0  0
 42 43  1  0  0  0  0
 36 44  1  0  0  0  0
 43 44  1  0  0  0  0
 42 45  1  0  0  0  0
 43 45  1  0  0  0  0
 44 46  1  0  0  0  0
 36 47  1  0  0  0  0
 40 47  1  0  0  0  0
 44 47  1  0  0  0  0
 46 47  1  0  0  0  0
 40 48  1  0  0  0  0
 47 48  1  0  0  0  0
 41 49  1  0  0  0  0
 48 49  1  0  0  0  0
 46 50  1  0  0  0  0
 47 50  1  0  0  0  0
 48 50  1  0  0  0  0
 49 51  1  0  0  0  0
 45 52  1  0  0  0  0
 45 53  1  0  0  0  0
 52 53  1  0  0  0  0
 46 54  1  0  0  0  0
 53 54  1  0  0  0  0
 52 55  1  0  0  0  0
 53 55  1  0  0  0  0
 54 56  1  0  0  0  0
 46 57  1  0  0  0  0
 54 57  1  0  0  0  0
 56 57  1  0  0  0  0
 50 58  1  0  0  0  0
 57 58  1  0  0  0  0
 50 59  1  0  0  0  0
 51 59  1  0  0  0  0
 58 59  1  0  0  0  0
 56 60  1  0  0  0  0
 57 60  1  0  0  0  0
 58 60  1  0  0  0  0
 58 61  1  0  0  0  0
 59 61  1  0  0  0  0
 22 62  1  0  0  0  0
 22 63  1  0  0  0  0
 23 63  1  0  0  0  0
 24 64  1  0  0  0  0
 28 65  1  0  0  0  0
 29 66  1  0  0  0  0
 31 67  1  0  0  0  0
 32 68  1  0  0  0  0
 41 69  1  0  0  0  0
 42 70  1  0  0  0  0
 51 71  1  0  0  0  0
 52 72  1  0  0  0  0
 55 73  1  0  0  0  0
 56 74  1  0  0  0  0
 60 75  1  0  0  0  0
 61 76  1  0  0  0  0
M  END
