 xtb: 6.7.1 (edcfbbe)
          09242620043D

 60110  0     0  0            999 V2000
   -7.1075    0.3454    0.4260 B   0  0  0  0  0  0  0  0  0  0  0  0
   -6.4077   -1.2150    0.4749 B   0  0  0  0  0  0  0  0  0  0  0  0
   -6.1156    1.5941   -0.2261 B   0  0  0  0  0  0  0  0  0  0  0  0
   -5.4295    0.1423    0.3014 B   0  0  0  0  0  0  0  0  0  0  0  0
   -4.7308   -1.3385    0.7588 B   0  0  0  0  0  0  0  0  0  0  0  0
   -5.0076   -4.2251    1.1978 B   0  0  0  0  0  0  0  0  0  0  0  0
   -4.3262   -5.6286    1.9127 B   0  0  0  0  0  0  0  0  0  0  0  0
   -4.0415   -2.8204    1.1213 B   0  0  0  0  0  0  0  0  0  0  0  0
   -3.3416   -4.3433    1.4047 B   0  0  0  0  0  0  0  0  0  0  0  0
   -2.6436   -5.8666    1.6192 B   0  0  0  0  0  0  0  0  0  0  0  0
   -4.4391    1.4937   -0.0097 B   0  0  0  0  0  0  0  0  0  0  0  0
   -3.7413    0.0055    0.4686 B   0  0  0  0  0  0  0  0  0  0  0  0
   -3.4569    2.8728   -0.0701 B   0  0  0  0  0  0  0  0  0  0  0  0
   -2.7604    1.3509    0.1632 B   0  0  0  0  0  0  0  0  0  0  0  0
   -2.0598   -0.1712    0.4365 B   0  0  0  0  0  0  0  0  0  0  0  0
   -2.3573   -2.9618    1.2397 B   0  0  0  0  0  0  0  0  0  0  0  0
   -1.6464   -4.5117    1.4407 B   0  0  0  0  0  0  0  0  0  0  0  0
   -1.3677   -1.6571    0.8089 B   0  0  0  0  0  0  0  0  0  0  0  0
   -0.6724   -3.1354    1.2671 B   0  0  0  0  0  0  0  0  0  0  0  0
    0.0196   -4.6099    1.7113 B   0  0  0  0  0  0  0  0  0  0  0  0
   -1.7747    2.6931   -0.1705 B   0  0  0  0  0  0  0  0  0  0  0  0
   -1.0716    1.1794    0.1895 B   0  0  0  0  0  0  0  0  0  0  0  0
   -0.7764    3.9723   -0.6607 B   0  0  0  0  0  0  0  0  0  0  0  0
   -0.0869    2.5181   -0.1475 B   0  0  0  0  0  0  0  0  0  0  0  0
    0.6077    1.0402    0.3149 B   0  0  0  0  0  0  0  0  0  0  0  0
    0.3157   -1.8108    0.8672 B   0  0  0  0  0  0  0  0  0  0  0  0
    1.0123   -3.2736    1.4326 B   0  0  0  0  0  0  0  0  0  0  0  0
    1.3001   -0.4495    0.6683 B   0  0  0  0  0  0  0  0  0  0  0  0
    1.9966   -1.9366    1.0899 B   0  0  0  0  0  0  0  0  0  0  0  0
    2.6875   -3.4005    1.5704 B   0  0  0  0  0  0  0  0  0  0  0  0
    0.8896    3.8893   -0.3532 B   0  0  0  0  0  0  0  0  0  0  0  0
    1.5968    2.3724   -0.0078 B   0  0  0  0  0  0  0  0  0  0  0  0
    1.8806    5.2580   -0.4659 B   0  0  0  0  0  0  0  0  0  0  0  0
    2.5792    3.7472   -0.1933 B   0  0  0  0  0  0  0  0  0  0  0  0
    3.2780    2.2330    0.1289 B   0  0  0  0  0  0  0  0  0  0  0  0
    2.9798   -0.5864    0.8010 B   0  0  0  0  0  0  0  0  0  0  0  0
    3.6838   -2.1251    1.0616 B   0  0  0  0  0  0  0  0  0  0  0  0
    3.9692    0.7357    0.4207 B   0  0  0  0  0  0  0  0  0  0  0  0
    4.6709   -0.7800    0.7290 B   0  0  0  0  0  0  0  0  0  0  0  0
    5.3650   -2.2944    0.9904 B   0  0  0  0  0  0  0  0  0  0  0  0
    3.5678    5.0304   -0.7165 B   0  0  0  0  0  0  0  0  0  0  0  0
    4.2466    3.6286    0.0130 B   0  0  0  0  0  0  0  0  0  0  0  0
    5.6567    0.5269    0.3342 B   0  0  0  0  0  0  0  0  0  0  0  0
    6.3396   -0.8726    1.0688 B   0  0  0  0  0  0  0  0  0  0  0  0
   -8.2080    0.5798    0.7593 H   0  0  0  0  0  0  0  0  0  0  0  0
   -7.0566   -2.1515    0.2116 H   0  0  0  0  0  0  0  0  0  0  0  0
   -6.6204    2.4748   -0.8182 H   0  0  0  0  0  0  0  0  0  0  0  0
   -6.0680   -4.2851    0.7065 H   0  0  0  0  0  0  0  0  0  0  0  0
   -4.9545   -6.4145    2.5170 H   0  0  0  0  0  0  0  0  0  0  0  0
   -2.2349   -6.9606    1.4867 H   0  0  0  0  0  0  0  0  0  0  0  0
   -3.9446    3.9430   -0.0661 H   0  0  0  0  0  0  0  0  0  0  0  0
    0.4820   -5.6047    2.1367 H   0  0  0  0  0  0  0  0  0  0  0  0
   -1.2354    4.9217   -1.1817 H   0  0  0  0  0  0  0  0  0  0  0  0
    3.1731   -4.3787    2.0083 H   0  0  0  0  0  0  0  0  0  0  0  0
    1.4597    6.3497   -0.3511 H   0  0  0  0  0  0  0  0  0  0  0  0
    5.8862   -3.3368    0.8333 H   0  0  0  0  0  0  0  0  0  0  0  0
    4.1975    5.8291   -1.3005 H   0  0  0  0  0  0  0  0  0  0  0  0
    5.2921    3.6918    0.5384 H   0  0  0  0  0  0  0  0  0  0  0  0
    6.3352    1.2329   -0.3107 H   0  0  0  0  0  0  0  0  0  0  0  0
    7.4153   -0.8979    1.5365 H   0  0  0  0  0  0  0  0  0  0  0  0
  1  2  1  0  0  0  0
  1  3  1  0  0  0  0
  1  4  1  0  0  0  0
  2  4  1  0  0  0  0
  3  4  1  0  0  0  0
  2  5  1  0  0  0  0
  4  5  1  0  0  0  0
  6  7  1  0  0  0  0
  5  8  1  0  0  0  0
  6  8  1  0  0  0  0
  6  9  1  0  0  0  0
  7  9  1  0  0  0  0
  8  9  1  0  0  0  0
  7 10  1  0  0  0  0
  9 10  1  0  0  0  0
  3 11  1  0  0  0  0
  4 11  1  0  0  0  0
  4 12  1  0  0  0  0
  5 12  1  0  0  0  0
 11 12  1  0  0  0  0
 11 13  1  0  0  0  0
 11 14  1  0  0  0  0
 12 14  1  0  0  0  0
 13 14  1  0  0  0  0
 12 15  1  0  0  0  0
 14 15  1  0  0  0  0
  8 16  1  0  0  0  0
  9 16  1  0  0  0  0
  9 17  1  0  0  0  0
 10 17  1  0  0  0  0
 16 17  1  0  0  0  0
 15 18  1  0  0  0  0
 16 18  1  0  0  0  0
 16 19  1  0  0  0  0
 17 19  1  0  0  0  0
 18 19  1  0  0  0  0
 17 20  1  0  0  0  0
 19 20  1  0  0  0  0
 13 21  1  0  0  0  0
 14 21  1  0  0  0  0
 14 22  1  0  0  0  0
 15 22  1  0  0  0  0
 21 22  1  0  0  0  0
 21 23  1  0  0  0  0
 21 24  1  0  0  0  0
 22 24  1  0  0  0  0
 23 24  1  0  0  0  0
 22 25  1  0  0  0  0
 24 25  1  0  0  0  0
 18 26  1  0  0  0  0
 19 26  1  0  0  0  0
 19 27  1  0  0  0  0
 20 27  1  0  0  0  0
 26 27  1  0  0  0  0
 25 28  1  0  0  0  0
 26 28  1  0  0  0  0
 26 29  1  0  0  0  0
 27 29  1  0  0  0  0
 28 29  1  0  0  0  0
 27 30  1  0  0  0  0
 29 30  1  0  0  0  0
 23 31  1  0  0  0  0
 24 31  1  0  0  0  0
 24 32  1  0  0  0  0
 25 32  1  0  0  0  0
 31 32  1  0  0  0  0
 31 33  1  0  0  0  0
 31 34  1  0  0  0  0
 32 34  1  0  0  0  0
 33 34  1  0  0  0  0
 32 35  1  0  0  0  0
 34 35  1  0  0  0  0
 28 36  1  0  0  0  0
 29 36  1  0  0  0  0
 29 37  1  0  0  0  0
 30 37  1  0  0  0  0
 36 37  1  0  0  0  0
 35 38  1  0  0  0  0
 36 38  1  0  0  0  0
 36 39  1  0  0  0  0
 37 39  1  0  0  0  0
 38 39  1  0  0  0  0
 37 40  1  0  0  0  0
 39 40  1  0  0  0  0
 33 41  1  0  0  0  0
 34 41  1  0  0  0  0
 34 42  1  0  0  0  0
 35 42  1  0  0  0  0
 41 42  1  0  0  0  0
 38 43  1  0  0  0  0
 39 43  1  0  0  0  0
 39 44  1  0  0  0  0
 40 44  1  0  0  0  0
 43 44  1  0  0  0  0
  1 45  1  0  0  0  0
  2 46  1  0  0  0  0
  3 47  1  0  0  0  0
  6 48  1  0  0  0  0
  7 49  1  0  0  0  0
 10 50  1  0  0  0  0
 13 51  1  0  0  0  0
 20 52  1  0  0  0  0
 23 53  1  0  0  0  0
 30 54  1  0  0  0  0
 33 55  1  0  0  0  0
 40 56  1  0  0  0  0
 41 57  1  0  0  0  0
 42 58  1  0  0  0  0
 43 59  1  0  0  0  0
 44 60  1  0  0  0  0
M  END
