 xtb: 6.7.1 (edcfbbe)
          09242620033D

 60110  0     0  0            999 V2000
   -5.8564    3.0620    0.5049 B   0  0  0  0  0  0  0  0  0  0  0  0
   -5.8223    1.4014    0.0709 B   0  0  0  0  0  0  0  0  0  0  0  0
   -4.4136    3.9445    0.1738 B   0  0  0  0  0  0  0  0  0  0  0  0
   -4.3845    2.2576    0.2453 B   0  0  0  0  0  0  0  0  0  0  0  0
   -4.3511    0.5589    0.2459 B   0  0  0  0  0  0  0  0  0  0  0  0
   -5.7589   -1.9944   -0.0479 B   0  0  0  0  0  0  0  0  0  0  0  0
   -5.7284   -3.6851    0.2183 B   0  0  0  0  0  0  0  0  0  0  0  0
   -4.3192   -1.1136    0.1846 B   0  0  0  0  0  0  0  0  0  0  0  0
   -4.2890   -2.8068    0.0442 B   0  0  0  0  0  0  0  0  0  0  0  0
   -4.2537   -4.4818   -0.1767 B   0  0  0  0  0  0  0  0  0  0  0  0
   -2.9276    3.1404    0.2828 B   0  0  0  0  0  0  0  0  0  0  0  0
   -2.8991    1.4285    0.3224 B   0  0  0  0  0  0  0  0  0  0  0  0
   -1.4865    3.9818    0.5948 B   0  0  0  0  0  0  0  0  0  0  0  0
   -1.4530    2.3072    0.3785 B   0  0  0  0  0  0  0  0  0  0  0  0
   -1.4205    0.6224    0.1493 B   0  0  0  0  0  0  0  0  0  0  0  0
   -2.8352   -1.9302    0.1574 B   0  0  0  0  0  0  0  0  0  0  0  0
   -2.7994   -3.6340    0.0074 B   0  0  0  0  0  0  0  0  0  0  0  0
   -1.3887   -1.0570    0.0759 B   0  0  0  0  0  0  0  0  0  0  0  0
   -1.3572   -2.7552    0.1323 B   0  0  0  0  0  0  0  0  0  0  0  0
   -1.3255   -4.4431    0.2194 B   0  0  0  0  0  0  0  0  0  0  0  0
   -0.0033    3.1837    0.4775 B   0  0  0  0  0  0  0  0  0  0  0  0
    0.0296    1.4912    0.1819 B   0  0  0  0  0  0  0  0  0  0  0  0
    1.4453    4.0463    0.4975 B   0  0  0  0  0  0  0  0  0  0  0  0
    1.4774    2.3654    0.3449 B   0  0  0  0  0  0  0  0  0  0  0  0
    1.5095    0.6733    0.2435 B   0  0  0  0  0  0  0  0  0  0  0  0
    0.0933   -1.8730    0.1047 B   0  0  0  0  0  0  0  0  0  0  0  0
    0.1258   -3.5799    0.0741 B   0  0  0  0  0  0  0  0  0  0  0  0
    1.5412   -1.0059    0.1911 B   0  0  0  0  0  0  0  0  0  0  0  0
    1.5742   -2.6965    0.0519 B   0  0  0  0  0  0  0  0  0  0  0  0
    1.6062   -4.3728   -0.1524 B   0  0  0  0  0  0  0  0  0  0  0  0
    2.9233    3.2506    0.2790 B   0  0  0  0  0  0  0  0  0  0  0  0
    2.9582    1.5394    0.3387 B   0  0  0  0  0  0  0  0  0  0  0  0
    4.3760    4.1096    0.1880 B   0  0  0  0  0  0  0  0  0  0  0  0
    4.4091    2.4243    0.2187 B   0  0  0  0  0  0  0  0  0  0  0  0
    4.4397    0.7265    0.2060 B   0  0  0  0  0  0  0  0  0  0  0  0
    3.0223   -1.8183    0.1277 B   0  0  0  0  0  0  0  0  0  0  0  0
    3.0513   -3.5272    0.1161 B   0  0  0  0  0  0  0  0  0  0  0  0
    4.4711   -0.9481    0.2200 B   0  0  0  0  0  0  0  0  0  0  0  0
    4.5043   -2.6468    0.2308 B   0  0  0  0  0  0  0  0  0  0  0  0
    4.5327   -4.3325    0.2834 B   0  0  0  0  0  0  0  0  0  0  0  0
    5.8499    3.2831    0.5389 B   0  0  0  0  0  0  0  0  0  0  0  0
    5.8822    1.6202    0.0832 B   0  0  0  0  0  0  0  0  0  0  0  0
    5.9439   -1.7878    0.3932 B   0  0  0  0  0  0  0  0  0  0  0  0
    5.9804   -3.4533   -0.0265 B   0  0  0  0  0  0  0  0  0  0  0  0
   -6.8077    3.5948    0.9388 H   0  0  0  0  0  0  0  0  0  0  0  0
   -6.7694    0.9178   -0.4175 H   0  0  0  0  0  0  0  0  0  0  0  0
   -4.4921    5.0658   -0.1698 H   0  0  0  0  0  0  0  0  0  0  0  0
   -6.7233   -1.4932   -0.4798 H   0  0  0  0  0  0  0  0  0  0  0  0
   -6.6517   -4.3023    0.5970 H   0  0  0  0  0  0  0  0  0  0  0  0
   -4.2885   -5.5861   -0.5771 H   0  0  0  0  0  0  0  0  0  0  0  0
   -1.5288    5.1055    0.9401 H   0  0  0  0  0  0  0  0  0  0  0  0
   -1.3147   -5.5981    0.4405 H   0  0  0  0  0  0  0  0  0  0  0  0
    1.4323    5.2134    0.6472 H   0  0  0  0  0  0  0  0  0  0  0  0
    1.6335   -5.5093   -0.4537 H   0  0  0  0  0  0  0  0  0  0  0  0
    4.4202    5.2302   -0.1663 H   0  0  0  0  0  0  0  0  0  0  0  0
    4.6041   -5.4530    0.6315 H   0  0  0  0  0  0  0  0  0  0  0  0
    6.7742    3.8441    0.9942 H   0  0  0  0  0  0  0  0  0  0  0  0
    6.8490    1.1745   -0.4082 H   0  0  0  0  0  0  0  0  0  0  0  0
    6.8701   -1.2939    0.9139 H   0  0  0  0  0  0  0  0  0  0  0  0
    6.9323   -4.0001   -0.4394 H   0  0  0  0  0  0  0  0  0  0  0  0
  1  2  1  0  0  0  0
  1  3  1  0  0  0  0
  1  4  1  0  0  0  0
  2  4  1  0  0  0  0
  3  4  1  0  0  0  0
  2  5  1  0  0  0  0
  4  5  1  0  0  0  0
  6  7  1  0  0  0  0
  5  8  1  0  0  0  0
  6  8  1  0  0  0  0
  6  9  1  0  0  0  0
  7  9  1  0  0  0  0
  8  9  1  0  0  0  0
  7 10  1  0  0  0  0
  9 10  1  0  0  0  0
  3 11  1  0  0  0  0
  4 11  1  0  0  0  0
  4 12  1  0  0  0  0
  5 12  1  0  0  0  0
 11 12  1  0  0  0  0
 11 13  1  0  0  0  0
 11 14  1  0  0  0  0
 12 14  1  0  0  0  0
 13 14  1  0  0  0  0
 12 15  1  0  0  0  0
 14 15  1  0  0  0  0
  8 16  1  0  0  0  0
  9 16  1  0  0  0  0
  9 17  1  0  0  0  0
 10 17  1  0  0  0  0
 16 17  1  0  0  0  0
 15 18  1  0  0  0  0
 16 18  1  0  0  0  0
 16 19  1  0  0  0  0
 17 19  1  0  0  0  0
 18 19  1  0  0  0  0
 17 20  1  0  0  0  0
 19 20  1  0  0  0  0
 13 21  1  0  0  0  0
 14 21  1  0  0  0  0
 14 22  1  0  0  0  0
 15 22  1  0  0  0  0
 21 22  1  0  0  0  0
 21 23  1  0  0  0  0
 21 24  1  0  0  0  0
 22 24  1  0  0  0  0
 23 24  1  0  0  0  0
 22 25  1  0  0  0  0
 24 25  1  0  0  0  0
 18 26  1  0  0  0  0
 19 26  1  0  0  0  0
 19 27  1  0  0  0  0
 20 27  1  0  0  0  0
 26 27  1  0  0  0  0
 25 28  1  0  0  0  0
 26 28  1  0  0  0  0
 26 29  1  0  0  0  0
 27 29  1  0  0  0  0
 28 29  1  0  0  0  0
 27 30  1  0  0  0  0
 29 30  1  0  0  0  0
 23 31  1  0  0  0  0
 24 31  1  0  0  0  0
 24 32  1  0  0  0  0
 25 32  1  0  0  0  0
 31 32  1  0  0  0  0
 31 33  1  0  0  0  0
 31 34  1  0  0  0  0
 32 34  1  0  0  0  0
 33 34  1  0  0  0  0
 32 35  1  0  0  0  0
 34 35  1  0  0  0  0
 28 36  1  0  0  0  0
 29 36  1  0  0  0  0
 29 37  1  0  0  0  0
 30 37  1  0  0  0  0
 36 37  1  0  0  0  0
 35 38  1  0  0  0  0
 36 38  1  0  0  0  0
 36 39  1  0  0  0  0
 37 39  1  0  0  0  0
 38 39  1  0  0  0  0
 37 40  1  0  0  0  0
 39 40  1  0  0  0  0
 33 41  1  0  0  0  0
 34 41  1  0  0  0  0
 34 42  1  0  0  0  0
 35 42  1  0  0  0  0
 41 42  1  0  0  0  0
 38 43  1  0  0  0  0
 39 43  1  0  0  0  0
 39 44  1  0  0  0  0
 40 44  1  0  0  0  0
 43 44  1  0  0  0  0
  1 45  1  0  0  0  0
  2 46  1  0  0  0  0
  3 47  1  0  0  0  0
  6 48  1  0  0  0  0
  7 49  1  0  0  0  0
 10 50  1  0  0  0  0
 13 51  1  0  0  0  0
 20 52  1  0  0  0  0
 23 53  1  0  0  0  0
 30 54  1  0  0  0  0
 33 55  1  0  0  0  0
 40 56  1  0  0  0  0
 41 57  1  0  0  0  0
 42 58  1  0  0  0  0
 43 59  1  0  0  0  0
 44 60  1  0  0  0  0
M  END
