 xtb: 6.7.1pre (5071a88)
          09012616343D

 89131  0     0  0            999 V2000
   -5.2875    1.2217    6.3838 C   0  0  0  0  0  0  0  0  0  0  0  0
   -3.9705    0.5163    6.2620 C   0  0  0  0  0  0  0  0  0  0  0  0
   -2.7876    1.2416    6.1036 C   0  0  0  0  0  0  0  0  0  0  0  0
   -1.5590    0.5838    5.9577 C   0  0  0  0  0  0  0  0  0  0  0  0
   -1.4772   -0.8116    5.9564 C   0  0  0  0  0  0  0  0  0  0  0  0
   -0.2800   -1.5367    5.8119 N   0  0  0  0  0  0  0  0  0  0  0  0
    0.9889   -1.0910    5.6508 C   0  0  0  0  0  0  0  0  0  0  0  0
    1.4027    0.1530    5.5771 N   0  0  0  0  0  0  0  0  0  0  0  0
    2.7741    0.2122    5.4104 C   0  0  0  0  0  0  0  0  0  0  0  0
    3.5432    1.3880    5.2954 C   0  0  0  0  0  0  0  0  0  0  0  0
    4.9293    1.2996    5.1297 C   0  0  0  0  0  0  0  0  0  0  0  0
    5.5541    0.0576    5.0777 C   0  0  0  0  0  0  0  0  0  0  0  0
    4.8127   -1.1229    5.1894 C   0  0  0  0  0  0  0  0  0  0  0  0
    3.4213   -1.0204    5.3555 C   0  0  0  0  0  0  0  0  0  0  0  0
    2.2514   -2.2671    5.5201 S   0  0  0  0  0  0  0  0  0  0  0  0
   -2.6771   -1.5290    6.1000 C   0  0  0  0  0  0  0  0  0  0  0  0
   -3.9075   -0.8779    6.2460 C   0  0  0  0  0  0  0  0  0  0  0  0
   -5.9922    0.6332    6.9807 H   0  0  0  0  0  0  0  0  0  0  0  0
   -5.1679    2.1888    6.8836 H   0  0  0  0  0  0  0  0  0  0  0  0
   -5.7169    1.3871    5.3910 H   0  0  0  0  0  0  0  0  0  0  0  0
   -2.8055    2.3292    6.0923 H   0  0  0  0  0  0  0  0  0  0  0  0
   -0.6705    1.1972    5.8432 H   0  0  0  0  0  0  0  0  0  0  0  0
   -0.3985   -2.5403    5.8495 H   0  0  0  0  0  0  0  0  0  0  0  0
    3.0504    2.3543    5.3366 H   0  0  0  0  0  0  0  0  0  0  0  0
    5.5188    2.2092    5.0414 H   0  0  0  0  0  0  0  0  0  0  0  0
    6.6331    0.0023    4.9485 H   0  0  0  0  0  0  0  0  0  0  0  0
    5.3012   -2.0917    5.1487 H   0  0  0  0  0  0  0  0  0  0  0  0
   -2.6697   -2.6162    6.0970 H   0  0  0  0  0  0  0  0  0  0  0  0
   -4.8137   -1.4704    6.3474 H   0  0  0  0  0  0  0  0  0  0  0  0
   -6.9256   -4.6511    0.2587 B   0  0  0  0  0  0  0  0  0  0  0  0
   -5.1098   -2.2493    0.3222 B   0  0  0  0  0  0  0  0  0  0  0  0
   -3.5915   -2.1814    0.2128 B   0  0  0  0  0  0  0  0  0  0  0  0
    0.9993   -2.8754    0.0638 B   0  0  0  0  0  0  0  0  0  0  0  0
    2.4759   -3.0122   -0.2709 B   0  0  0  0  0  0  0  0  0  0  0  0
    5.2994   -3.8314   -0.6672 B   0  0  0  0  0  0  0  0  0  0  0  0
    6.3183   -4.8359   -1.1558 B   0  0  0  0  0  0  0  0  0  0  0  0
   -6.4348   -3.1583    0.2864 B   0  0  0  0  0  0  0  0  0  0  0  0
   -6.7520   -1.6338    0.3164 B   0  0  0  0  0  0  0  0  0  0  0  0
   -2.0526   -2.3173    0.3349 B   0  0  0  0  0  0  0  0  0  0  0  0
   -0.4841   -2.4619    0.2574 B   0  0  0  0  0  0  0  0  0  0  0  0
    4.0184   -2.9011   -0.2872 B   0  0  0  0  0  0  0  0  0  0  0  0
    5.7532   -2.2815   -0.3028 B   0  0  0  0  0  0  0  0  0  0  0  0
    6.8301   -3.2288   -1.0929 B   0  0  0  0  0  0  0  0  0  0  0  0
   -7.6564   -0.2550    0.3431 B   0  0  0  0  0  0  0  0  0  0  0  0
   -6.0374   -0.1395    0.1913 B   0  0  0  0  0  0  0  0  0  0  0  0
   -4.4316   -0.5357    0.2239 B   0  0  0  0  0  0  0  0  0  0  0  0
   -2.7379   -0.6604    0.3290 B   0  0  0  0  0  0  0  0  0  0  0  0
   -1.0518   -0.9157    0.6419 B   0  0  0  0  0  0  0  0  0  0  0  0
    0.5171   -1.1722    0.7257 B   0  0  0  0  0  0  0  0  0  0  0  0
    3.1231   -1.4831   -0.0635 B   0  0  0  0  0  0  0  0  0  0  0  0
    4.7001   -1.1340    0.3402 B   0  0  0  0  0  0  0  0  0  0  0  0
    6.2667   -0.7872    0.2517 B   0  0  0  0  0  0  0  0  0  0  0  0
    7.6720   -0.3517    1.0327 B   0  0  0  0  0  0  0  0  0  0  0  0
   -6.9181    1.2121    0.1915 B   0  0  0  0  0  0  0  0  0  0  0  0
   -3.4184    0.7801    0.0809 B   0  0  0  0  0  0  0  0  0  0  0  0
   -1.6542    0.5326    0.1239 B   0  0  0  0  0  0  0  0  0  0  0  0
    1.8622   -0.4037    0.3246 B   0  0  0  0  0  0  0  0  0  0  0  0
    3.5847   -0.1504    0.7852 B   0  0  0  0  0  0  0  0  0  0  0  0
    6.9910    0.6111   -0.1068 B   0  0  0  0  0  0  0  0  0  0  0  0
    8.3074    1.0629    0.6316 B   0  0  0  0  0  0  0  0  0  0  0  0
   -7.6194    2.8040    0.2986 B   0  0  0  0  0  0  0  0  0  0  0  0
   -6.1238    2.5185   -0.1765 B   0  0  0  0  0  0  0  0  0  0  0  0
   -3.5886    2.3277   -0.2368 B   0  0  0  0  0  0  0  0  0  0  0  0
   -0.9061    1.8195   -0.4198 B   0  0  0  0  0  0  0  0  0  0  0  0
    1.6234    1.0199   -0.4108 B   0  0  0  0  0  0  0  0  0  0  0  0
    3.0108    1.3090    0.5297 B   0  0  0  0  0  0  0  0  0  0  0  0
    6.3729    1.8582   -0.9160 B   0  0  0  0  0  0  0  0  0  0  0  0
   -6.5277    4.0456   -0.1608 B   0  0  0  0  0  0  0  0  0  0  0  0
   -4.8736    3.4948   -0.3884 B   0  0  0  0  0  0  0  0  0  0  0  0
   -3.4155    3.8801   -0.6064 B   0  0  0  0  0  0  0  0  0  0  0  0
   -2.0235    3.2206   -0.6767 B   0  0  0  0  0  0  0  0  0  0  0  0
   -0.4974    3.2796   -0.8970 B   0  0  0  0  0  0  0  0  0  0  0  0
    0.7107    2.3324   -0.7457 B   0  0  0  0  0  0  0  0  0  0  0  0
    2.3353    2.4781   -0.4754 B   0  0  0  0  0  0  0  0  0  0  0  0
    3.8161    2.6195   -0.0941 B   0  0  0  0  0  0  0  0  0  0  0  0
    5.3698    2.8646   -0.1489 B   0  0  0  0  0  0  0  0  0  0  0  0
    6.0551    4.0800    0.6312 B   0  0  0  0  0  0  0  0  0  0  0  0
    6.2041    5.1477    0.1463 H   0  0  0  0  0  0  0  0  0  0  0  0
    8.2184   -1.1210    1.7268 H   0  0  0  0  0  0  0  0  0  0  0  0
    6.6224    1.9818   -2.0674 H   0  0  0  0  0  0  0  0  0  0  0  0
   -7.0900   -5.2506   -0.7538 H   0  0  0  0  0  0  0  0  0  0  0  0
   -6.7912    5.1815   -0.2852 H   0  0  0  0  0  0  0  0  0  0  0  0
    9.1569    1.8466    0.7900 H   0  0  0  0  0  0  0  0  0  0  0  0
   -8.8277   -0.3758    0.3286 H   0  0  0  0  0  0  0  0  0  0  0  0
    6.7839   -5.8690   -1.4465 H   0  0  0  0  0  0  0  0  0  0  0  0
   -8.7247    3.0012    0.6388 H   0  0  0  0  0  0  0  0  0  0  0  0
    7.8918   -2.8835   -1.4737 H   0  0  0  0  0  0  0  0  0  0  0  0
    6.4282    3.9996    1.7485 H   0  0  0  0  0  0  0  0  0  0  0  0
   -7.2249   -5.2823    1.2187 H   0  0  0  0  0  0  0  0  0  0  0  0
  1  2  1  0  0  0  0
  2  3  4  0  0  0  0
  3  4  4  0  0  0  0
  4  5  4  0  0  0  0
  5  6  1  0  0  0  0
  6  7  1  0  0  0  0
  7  8  2  0  0  0  0
  8  9  1  0  0  0  0
  9 10  4  0  0  0  0
 10 11  4  0  0  0  0
 11 12  4  0  0  0  0
 12 13  4  0  0  0  0
  9 14  4  0  0  0  0
 13 14  4  0  0  0  0
  7 15  1  0  0  0  0
 14 15  1  0  0  0  0
  5 16  4  0  0  0  0
  2 17  4  0  0  0  0
 16 17  4  0  0  0  0
  1 18  1  0  0  0  0
  1 19  1  0  0  0  0
  1 20  1  0  0  0  0
  3 21  1  0  0  0  0
  4 22  1  0  0  0  0
  6 23  1  0  0  0  0
 10 24  1  0  0  0  0
 11 25  1  0  0  0  0
 12 26  1  0  0  0  0
 13 27  1  0  0  0  0
 16 28  1  0  0  0  0
 17 29  1  0  0  0  0
 31 32  1  0  0  0  0
 33 34  2  0  0  0  0
 35 36  2  0  0  0  0
 30 37  1  0  0  0  0
 31 37  1  0  0  0  0
 31 38  1  0  0  0  0
 37 38  1  0  0  0  0
 32 39  1  0  0  0  0
 33 40  1  0  0  0  0
 39 40  1  0  0  0  0
 34 41  1  0  0  0  0
 35 41  1  0  0  0  0
 35 42  1  0  0  0  0
 41 42  1  0  0  0  0
 35 43  1  0  0  0  0
 36 43  1  0  0  0  0
 42 43  1  0  0  0  0
 38 44  1  0  0  0  0
 38 45  1  0  0  0  0
 44 45  1  0  0  0  0
 31 46  1  0  0  0  0
 32 46  1  0  0  0  0
 45 46  1  0  0  0  0
 32 47  1  0  0  0  0
 39 47  1  0  0  0  0
 46 47  1  0  0  0  0
 39 48  1  0  0  0  0
 40 48  1  0  0  0  0
 47 48  1  0  0  0  0
 33 49  1  0  0  0  0
 40 49  1  0  0  0  0
 48 49  1  0  0  0  0
 34 50  1  0  0  0  0
 41 50  1  0  0  0  0
 41 51  1  0  0  0  0
 42 51  1  0  0  0  0
 50 51  1  0  0  0  0
 42 52  1  0  0  0  0
 51 52  1  0  0  0  0
 52 53  1  0  0  0  0
 44 54  1  0  0  0  0
 45 54  1  0  0  0  0
 46 55  1  0  0  0  0
 47 55  1  0  0  0  0
 47 56  1  0  0  0  0
 48 56  1  0  0  0  0
 55 56  1  0  0  0  0
 49 57  1  0  0  0  0
 50 57  1  0  0  0  0
 50 58  1  0  0  0  0
 51 58  1  0  0  0  0
 57 58  1  0  0  0  0
 52 59  1  0  0  0  0
 53 59  1  0  0  0  0
 53 60  1  0  0  0  0
 59 60  1  0  0  0  0
 54 61  1  0  0  0  0
 54 62  1  0  0  0  0
 61 62  1  0  0  0  0
 55 63  1  0  0  0  0
 56 64  1  0  0  0  0
 57 65  1  0  0  0  0
 58 66  1  0  0  0  0
 65 66  1  0  0  0  0
 59 67  1  0  0  0  0
 61 68  1  0  0  0  0
 62 68  1  0  0  0  0
 62 69  1  0  0  0  0
 63 69  1  0  0  0  0
 68 69  1  0  0  0  0
 63 70  1  0  0  0  0
 69 70  1  0  0  0  0
 63 71  1  0  0  0  0
 64 71  1  0  0  0  0
 70 71  1  0  0  0  0
 64 72  1  0  0  0  0
 71 72  1  0  0  0  0
 64 73  1  0  0  0  0
 65 73  1  0  0  0  0
 72 73  1  0  0  0  0
 65 74  1  0  0  0  0
 66 74  1  0  0  0  0
 73 74  1  0  0  0  0
 66 75  1  0  0  0  0
 74 75  1  0  0  0  0
 67 76  1  0  0  0  0
 75 76  1  0  0  0  0
 76 77  1  0  0  0  0
 77 78  1  0  0  0  0
 53 79  1  0  0  0  0
 67 80  1  0  0  0  0
 30 81  1  0  0  0  0
 68 82  1  0  0  0  0
 60 83  1  0  0  0  0
 44 84  1  0  0  0  0
 36 85  1  0  0  0  0
 61 86  1  0  0  0  0
 43 87  1  0  0  0  0
 77 88  1  0  0  0  0
 30 89  1  0  0  0  0
M  END
