 xtb: 6.7.1pre (5071a88)
          08312622043D

 89144  0     0  0            999 V2000
   -5.2875    1.2217    6.8458 C   0  0  0  0  0  0  0  0  0  0  0  0
   -3.9705    0.5163    6.7239 C   0  0  0  0  0  0  0  0  0  0  0  0
   -2.7876    1.2416    6.5656 C   0  0  0  0  0  0  0  0  0  0  0  0
   -1.5590    0.5838    6.4196 C   0  0  0  0  0  0  0  0  0  0  0  0
   -1.4772   -0.8116    6.4183 C   0  0  0  0  0  0  0  0  0  0  0  0
   -0.2800   -1.5367    6.2738 N   0  0  0  0  0  0  0  0  0  0  0  0
    0.9889   -1.0910    6.1127 C   0  0  0  0  0  0  0  0  0  0  0  0
    1.4027    0.1530    6.0390 N   0  0  0  0  0  0  0  0  0  0  0  0
    2.7741    0.2122    5.8723 C   0  0  0  0  0  0  0  0  0  0  0  0
    3.5432    1.3880    5.7573 C   0  0  0  0  0  0  0  0  0  0  0  0
    4.9293    1.2996    5.5916 C   0  0  0  0  0  0  0  0  0  0  0  0
    5.5541    0.0576    5.5396 C   0  0  0  0  0  0  0  0  0  0  0  0
    4.8127   -1.1229    5.6513 C   0  0  0  0  0  0  0  0  0  0  0  0
    3.4213   -1.0204    5.8174 C   0  0  0  0  0  0  0  0  0  0  0  0
    2.2514   -2.2671    5.9820 S   0  0  0  0  0  0  0  0  0  0  0  0
   -2.6771   -1.5290    6.5619 C   0  0  0  0  0  0  0  0  0  0  0  0
   -3.9075   -0.8779    6.7079 C   0  0  0  0  0  0  0  0  0  0  0  0
   -5.9922    0.6332    7.4426 H   0  0  0  0  0  0  0  0  0  0  0  0
   -5.1679    2.1888    7.3455 H   0  0  0  0  0  0  0  0  0  0  0  0
   -5.7169    1.3871    5.8529 H   0  0  0  0  0  0  0  0  0  0  0  0
   -2.8055    2.3292    6.5542 H   0  0  0  0  0  0  0  0  0  0  0  0
   -0.6705    1.1972    6.3052 H   0  0  0  0  0  0  0  0  0  0  0  0
   -0.3985   -2.5403    6.3115 H   0  0  0  0  0  0  0  0  0  0  0  0
    3.0504    2.3543    5.7985 H   0  0  0  0  0  0  0  0  0  0  0  0
    5.5188    2.2092    5.5033 H   0  0  0  0  0  0  0  0  0  0  0  0
    6.6331    0.0023    5.4104 H   0  0  0  0  0  0  0  0  0  0  0  0
    5.3012   -2.0917    5.6106 H   0  0  0  0  0  0  0  0  0  0  0  0
   -2.6697   -2.6162    6.5589 H   0  0  0  0  0  0  0  0  0  0  0  0
   -4.8137   -1.4704    6.8093 H   0  0  0  0  0  0  0  0  0  0  0  0
   -6.3511   -2.8545   -0.3396 B   0  0  0  0  0  0  0  0  0  0  0  0
   -3.8632   -3.4276    0.8712 B   0  0  0  0  0  0  0  0  0  0  0  0
   -1.0552   -4.1651    1.9793 B   0  0  0  0  0  0  0  0  0  0  0  0
    1.6853   -4.2318    1.3549 B   0  0  0  0  0  0  0  0  0  0  0  0
    2.9703   -3.6923    0.6219 B   0  0  0  0  0  0  0  0  0  0  0  0
    5.9076   -3.8486   -0.3800 B   0  0  0  0  0  0  0  0  0  0  0  0
   -4.7612   -2.3307   -0.4078 B   0  0  0  0  0  0  0  0  0  0  0  0
   -2.6199   -2.2111    0.8442 B   0  0  0  0  0  0  0  0  0  0  0  0
   -1.2327   -2.3911    1.7792 B   0  0  0  0  0  0  0  0  0  0  0  0
    0.2814   -3.1446    1.2586 B   0  0  0  0  0  0  0  0  0  0  0  0
    3.1280   -2.1353    0.0337 B   0  0  0  0  0  0  0  0  0  0  0  0
    5.2824   -2.5807   -1.1427 B   0  0  0  0  0  0  0  0  0  0  0  0
   -4.3827   -1.0545   -1.3461 B   0  0  0  0  0  0  0  0  0  0  0  0
   -3.1924   -1.2685   -0.2398 B   0  0  0  0  0  0  0  0  0  0  0  0
   -0.7667   -0.9151    2.1471 B   0  0  0  0  0  0  0  0  0  0  0  0
    0.4341   -1.5098    0.8825 B   0  0  0  0  0  0  0  0  0  0  0  0
    4.2603   -1.2719   -0.6057 B   0  0  0  0  0  0  0  0  0  0  0  0
    6.8452   -2.4756   -0.8065 B   0  0  0  0  0  0  0  0  0  0  0  0
   -5.0072   -0.6437   -2.8496 B   0  0  0  0  0  0  0  0  0  0  0  0
   -3.1952    0.1543   -0.9257 B   0  0  0  0  0  0  0  0  0  0  0  0
   -0.9469    0.6233    2.2104 B   0  0  0  0  0  0  0  0  0  0  0  0
    0.0016   -0.0204    0.9084 B   0  0  0  0  0  0  0  0  0  0  0  0
    4.8754    0.2242   -0.5476 B   0  0  0  0  0  0  0  0  0  0  0  0
    5.8786   -1.0664   -1.1306 B   0  0  0  0  0  0  0  0  0  0  0  0
   -5.7672    0.8535   -2.9176 B   0  0  0  0  0  0  0  0  0  0  0  0
   -2.8971    1.6282   -0.7083 B   0  0  0  0  0  0  0  0  0  0  0  0
   -1.2399    2.1332    2.0889 B   0  0  0  0  0  0  0  0  0  0  0  0
    0.1883    1.5499    1.0540 B   0  0  0  0  0  0  0  0  0  0  0  0
    4.2581    1.5841    0.0647 B   0  0  0  0  0  0  0  0  0  0  0  0
    6.3075    0.4397   -1.6258 B   0  0  0  0  0  0  0  0  0  0  0  0
   -5.7341    1.7554   -1.4938 B   0  0  0  0  0  0  0  0  0  0  0  0
   -3.3469    2.9740   -0.1746 B   0  0  0  0  0  0  0  0  0  0  0  0
   -1.6646    3.6160    1.7973 B   0  0  0  0  0  0  0  0  0  0  0  0
   -0.0590    3.1640    1.3235 B   0  0  0  0  0  0  0  0  0  0  0  0
    2.9656    2.2589    0.6844 B   0  0  0  0  0  0  0  0  0  0  0  0
    5.7919    1.6725   -0.6985 B   0  0  0  0  0  0  0  0  0  0  0  0
   -6.6389    2.8000   -0.8422 B   0  0  0  0  0  0  0  0  0  0  0  0
   -4.4746    3.8873    0.5879 B   0  0  0  0  0  0  0  0  0  0  0  0
   -1.7771    5.1752    1.2154 B   0  0  0  0  0  0  0  0  0  0  0  0
    1.1754    4.4066    1.3290 B   0  0  0  0  0  0  0  0  0  0  0  0
    2.5938    3.9229    0.8796 B   0  0  0  0  0  0  0  0  0  0  0  0
    5.3509    2.9860   -0.0541 B   0  0  0  0  0  0  0  0  0  0  0  0
   -5.3190   -3.6348    0.4165 B   0  0  0  0  0  0  0  0  0  0  0  0
   -2.4877   -3.6329    1.6055 B   0  0  0  0  0  0  0  0  0  0  0  0
    0.3596   -4.7213    1.9063 B   0  0  0  0  0  0  0  0  0  0  0  0
    1.7215   -2.4162    0.7345 B   0  0  0  0  0  0  0  0  0  0  0  0
    4.3387   -3.4800   -0.0729 B   0  0  0  0  0  0  0  0  0  0  0  0
   -5.0953    2.8472   -0.3735 B   0  0  0  0  0  0  0  0  0  0  0  0
   -3.0345    4.3187    0.9326 B   0  0  0  0  0  0  0  0  0  0  0  0
   -0.2869    4.8951    1.4426 B   0  0  0  0  0  0  0  0  0  0  0  0
    1.4616    2.5482    0.9924 B   0  0  0  0  0  0  0  0  0  0  0  0
    4.0784    3.6198    0.5106 B   0  0  0  0  0  0  0  0  0  0  0  0
   -4.5957    0.5913   -1.8415 B   0  0  0  0  0  0  0  0  0  0  0  0
   -7.3684   -2.5027   -0.8103 H   0  0  0  0  0  0  0  0  0  0  0  0
   -4.9591   -1.3760   -3.7739 H   0  0  0  0  0  0  0  0  0  0  0  0
   -6.3246    1.2608   -3.8715 H   0  0  0  0  0  0  0  0  0  0  0  0
   -7.6134    3.4017   -0.5976 H   0  0  0  0  0  0  0  0  0  0  0  0
    6.3612   -4.9354   -0.3602 H   0  0  0  0  0  0  0  0  0  0  0  0
    8.0163   -2.4682   -0.9061 H   0  0  0  0  0  0  0  0  0  0  0  0
    6.9392    0.6146   -2.6128 H   0  0  0  0  0  0  0  0  0  0  0  0
  1  2  1  0  0  0  0
  2  3  4  0  0  0  0
  3  4  4  0  0  0  0
  4  5  4  0  0  0  0
  5  6  1  0  0  0  0
  6  7  1  0  0  0  0
  7  8  4  0  0  0  0
  8  9  1  0  0  0  0
  9 10  4  0  0  0  0
 10 11  4  0  0  0  0
 11 12  4  0  0  0  0
 12 13  4  0  0  0  0
  9 14  4  0  0  0  0
 13 14  4  0  0  0  0
  7 15  1  0  0  0  0
 14 15  1  0  0  0  0
  5 16  4  0  0  0  0
  2 17  4  0  0  0  0
 16 17  4  0  0  0  0
  1 18  1  0  0  0  0
  1 19  1  0  0  0  0
  1 20  1  0  0  0  0
  3 21  1  0  0  0  0
  4 22  1  0  0  0  0
  6 23  1  0  0  0  0
 10 24  1  0  0  0  0
 11 25  1  0  0  0  0
 12 26  1  0  0  0  0
 13 27  1  0  0  0  0
 16 28  1  0  0  0  0
 17 29  1  0  0  0  0
 33 34  1  0  0  0  0
 30 36  1  0  0  0  0
 31 36  1  0  0  0  0
 31 37  1  0  0  0  0
 32 38  1  0  0  0  0
 37 38  1  0  0  0  0
 32 39  1  0  0  0  0
 33 39  1  0  0  0  0
 38 39  1  0  0  0  0
 34 40  1  0  0  0  0
 35 41  1  0  0  0  0
 36 42  1  0  0  0  0
 36 43  1  0  0  0  0
 37 43  1  0  0  0  0
 42 43  1  0  0  0  0
 38 44  1  0  0  0  0
 39 45  1  0  0  0  0
 44 45  1  0  0  0  0
 40 46  1  0  0  0  0
 41 46  1  0  0  0  0
 35 47  1  0  0  0  0
 41 47  1  0  0  0  0
 42 48  1  0  0  0  0
 42 49  1  0  0  0  0
 43 49  1  0  0  0  0
 44 50  1  0  0  0  0
 44 51  1  0  0  0  0
 45 51  1  0  0  0  0
 50 51  1  0  0  0  0
 46 52  1  0  0  0  0
 41 53  1  0  0  0  0
 46 53  1  0  0  0  0
 47 53  1  0  0  0  0
 52 53  1  0  0  0  0
 48 54  1  0  0  0  0
 49 55  1  0  0  0  0
 50 56  1  0  0  0  0
 50 57  1  0  0  0  0
 51 57  1  0  0  0  0
 56 57  1  0  0  0  0
 52 58  1  0  0  0  0
 52 59  1  0  0  0  0
 53 59  1  0  0  0  0
 54 60  1  0  0  0  0
 55 61  2  0  0  0  0
 56 62  1  0  0  0  0
 56 63  1  0  0  0  0
 57 63  1  0  0  0  0
 62 63  1  0  0  0  0
 58 64  1  0  0  0  0
 52 65  1  0  0  0  0
 58 65  1  0  0  0  0
 59 65  1  0  0  0  0
 60 66  1  0  0  0  0
 61 67  1  0  0  0  0
 62 68  1  0  0  0  0
 63 69  1  0  0  0  0
 64 70  1  0  0  0  0
 69 70  1  0  0  0  0
 58 71  1  0  0  0  0
 65 71  1  0  0  0  0
 30 72  2  0  0  0  0
 31 72  1  0  0  0  0
 36 72  1  0  0  0  0
 31 73  1  0  0  0  0
 32 73  1  0  0  0  0
 37 73  1  0  0  0  0
 38 73  1  0  0  0  0
 32 74  1  0  0  0  0
 33 74  1  0  0  0  0
 39 74  1  0  0  0  0
 33 75  1  0  0  0  0
 34 75  1  0  0  0  0
 39 75  1  0  0  0  0
 40 75  1  0  0  0  0
 45 75  1  0  0  0  0
 34 76  1  0  0  0  0
 35 76  1  0  0  0  0
 40 76  1  0  0  0  0
 41 76  1  0  0  0  0
 60 77  1  0  0  0  0
 61 77  1  0  0  0  0
 66 77  1  0  0  0  0
 67 77  1  0  0  0  0
 61 78  1  0  0  0  0
 62 78  1  0  0  0  0
 67 78  1  0  0  0  0
 68 78  1  0  0  0  0
 62 79  1  0  0  0  0
 63 79  1  0  0  0  0
 68 79  1  0  0  0  0
 69 79  1  0  0  0  0
 57 80  1  0  0  0  0
 63 80  1  0  0  0  0
 64 80  1  0  0  0  0
 69 80  1  0  0  0  0
 70 80  1  0  0  0  0
 58 81  1  0  0  0  0
 64 81  1  0  0  0  0
 70 81  1  0  0  0  0
 71 81  1  0  0  0  0
 42 82  1  0  0  0  0
 48 82  1  0  0  0  0
 49 82  1  0  0  0  0
 54 82  1  0  0  0  0
 60 82  1  0  0  0  0
 30 83  1  0  0  0  0
 48 84  1  0  0  0  0
 54 85  1  0  0  0  0
 66 86  1  0  0  0  0
 35 87  1  0  0  0  0
 47 88  1  0  0  0  0
 59 89  1  0  0  0  0
M  END
