 xtb: 6.7.1pre (5071a88)
          08312620193D

 95127  0     0  0            999 V2000
    5.6838    0.8956    3.8466 C   0  0  0  0  0  0  0  0  0  0  0  0
    4.3324    0.4883    3.3267 C   0  0  0  0  0  0  0  0  0  0  0  0
    3.1957    0.7147    4.1309 C   0  0  0  0  0  0  0  0  0  0  0  0
    1.9079    0.4082    3.7242 C   0  0  0  0  0  0  0  0  0  0  0  0
    0.9174    0.6750    4.5972 N   0  0  0  0  0  0  0  0  0  0  0  0
   -0.3821    0.4411    4.3281 C   0  0  0  0  0  0  0  0  0  0  0  0
   -1.2910    0.7636    5.3143 C   0  0  0  0  0  0  0  0  0  0  0  0
   -2.6747    0.5661    5.1588 C   0  0  0  0  0  0  0  0  0  0  0  0
   -3.2260    0.0180    3.9933 C   0  0  0  0  0  0  0  0  0  0  0  0
   -4.6026   -0.1629    3.8322 N   0  0  0  0  0  0  0  0  0  0  0  0
   -5.0905   -0.9847    2.7251 C   0  0  0  0  0  0  0  0  0  0  0  0
   -5.4705   -0.1087    5.0081 C   0  0  0  0  0  0  0  0  0  0  0  0
   -2.3031   -0.2939    2.9842 C   0  0  0  0  0  0  0  0  0  0  0  0
   -0.9155   -0.0951    3.1433 C   0  0  0  0  0  0  0  0  0  0  0  0
    0.1516   -0.5496    1.7756 S   0  0  0  0  0  0  0  0  0  0  0  0
    1.7660   -0.1392    2.4355 C   0  0  0  0  0  0  0  0  0  0  0  0
    2.8835   -0.3780    1.6191 C   0  0  0  0  0  0  0  0  0  0  0  0
    4.1780   -0.1184    2.0739 C   0  0  0  0  0  0  0  0  0  0  0  0
    5.2537   -0.2659    1.1888 N   0  0  0  0  0  0  0  0  0  0  0  0
    6.3178    0.0136    3.9825 H   0  0  0  0  0  0  0  0  0  0  0  0
    6.1668    1.5897    3.1513 H   0  0  0  0  0  0  0  0  0  0  0  0
    5.6084    1.4027    4.8144 H   0  0  0  0  0  0  0  0  0  0  0  0
    3.3218    1.1626    5.1160 H   0  0  0  0  0  0  0  0  0  0  0  0
   -0.9255    1.1906    6.2462 H   0  0  0  0  0  0  0  0  0  0  0  0
   -3.3040    0.8654    5.9917 H   0  0  0  0  0  0  0  0  0  0  0  0
   -4.8096   -0.5538    1.7581 H   0  0  0  0  0  0  0  0  0  0  0  0
   -6.1850   -1.0393    2.7220 H   0  0  0  0  0  0  0  0  0  0  0  0
   -4.7087   -2.0090    2.7977 H   0  0  0  0  0  0  0  0  0  0  0  0
   -6.5193   -0.2747    4.7372 H   0  0  0  0  0  0  0  0  0  0  0  0
   -5.1924   -0.8770    5.7379 H   0  0  0  0  0  0  0  0  0  0  0  0
   -5.4360    0.8787    5.4809 H   0  0  0  0  0  0  0  0  0  0  0  0
   -2.6443   -0.7015    2.0374 H   0  0  0  0  0  0  0  0  0  0  0  0
    2.7385   -0.7750    0.6172 H   0  0  0  0  0  0  0  0  0  0  0  0
    5.1023   -0.9604    0.4636 H   0  0  0  0  0  0  0  0  0  0  0  0
    6.1552   -0.3799    1.6401 H   0  0  0  0  0  0  0  0  0  0  0  0
   -7.5000   -4.5000    0.0000 B   0  0  0  0  0  0  0  0  0  0  0  0
   -4.5000   -4.5000    0.0000 B   0  0  0  0  0  0  0  0  0  0  0  0
   -1.5000   -4.5000    0.0000 B   0  0  0  0  0  0  0  0  0  0  0  0
    1.5000   -4.5000    0.0000 B   0  0  0  0  0  0  0  0  0  0  0  0
    4.5000   -4.5000    0.0000 B   0  0  0  0  0  0  0  0  0  0  0  0
    7.5000   -4.5000    0.0000 B   0  0  0  0  0  0  0  0  0  0  0  0
   -7.5000   -3.0000    0.0000 B   0  0  0  0  0  0  0  0  0  0  0  0
   -4.5000   -3.0000    0.0000 B   0  0  0  0  0  0  0  0  0  0  0  0
   -1.5000   -3.0000    0.0000 B   0  0  0  0  0  0  0  0  0  0  0  0
    1.5000   -3.0000    0.0000 B   0  0  0  0  0  0  0  0  0  0  0  0
    4.5000   -3.0000    0.0000 B   0  0  0  0  0  0  0  0  0  0  0  0
    7.5000   -3.0000    0.0000 B   0  0  0  0  0  0  0  0  0  0  0  0
   -7.5000   -1.5000    0.0000 B   0  0  0  0  0  0  0  0  0  0  0  0
   -4.5000   -1.5000    0.0000 B   0  0  0  0  0  0  0  0  0  0  0  0
   -1.5000   -1.5000    0.0000 B   0  0  0  0  0  0  0  0  0  0  0  0
    1.5000   -1.5000    0.0000 B   0  0  0  0  0  0  0  0  0  0  0  0
    4.5000   -1.5000    0.0000 B   0  0  0  0  0  0  0  0  0  0  0  0
    7.5000   -1.5000    0.0000 B   0  0  0  0  0  0  0  0  0  0  0  0
   -7.5000    0.0000    0.0000 B   0  0  0  0  0  0  0  0  0  0  0  0
   -4.5000    0.0000    0.0000 B   0  0  0  0  0  0  0  0  0  0  0  0
   -1.5000    0.0000    0.0000 B   0  0  0  0  0  0  0  0  0  0  0  0
    1.5000    0.0000    0.0000 B   0  0  0  0  0  0  0  0  0  0  0  0
    4.5000    0.0000    0.0000 B   0  0  0  0  0  0  0  0  0  0  0  0
    7.5000    0.0000    0.0000 B   0  0  0  0  0  0  0  0  0  0  0  0
   -7.5000    1.5000    0.0000 B   0  0  0  0  0  0  0  0  0  0  0  0
   -4.5000    1.5000    0.0000 B   0  0  0  0  0  0  0  0  0  0  0  0
   -1.5000    1.5000    0.0000 B   0  0  0  0  0  0  0  0  0  0  0  0
    1.5000    1.5000    0.0000 B   0  0  0  0  0  0  0  0  0  0  0  0
    4.5000    1.5000    0.0000 B   0  0  0  0  0  0  0  0  0  0  0  0
    7.5000    1.5000    0.0000 B   0  0  0  0  0  0  0  0  0  0  0  0
   -7.5000    3.0000    0.0000 B   0  0  0  0  0  0  0  0  0  0  0  0
   -4.5000    3.0000    0.0000 B   0  0  0  0  0  0  0  0  0  0  0  0
   -1.5000    3.0000    0.0000 B   0  0  0  0  0  0  0  0  0  0  0  0
    1.5000    3.0000    0.0000 B   0  0  0  0  0  0  0  0  0  0  0  0
    4.5000    3.0000    0.0000 B   0  0  0  0  0  0  0  0  0  0  0  0
    7.5000    3.0000    0.0000 B   0  0  0  0  0  0  0  0  0  0  0  0
   -7.5000    4.5000    0.0000 B   0  0  0  0  0  0  0  0  0  0  0  0
   -4.5000    4.5000    0.0000 B   0  0  0  0  0  0  0  0  0  0  0  0
   -1.5000    4.5000    0.0000 B   0  0  0  0  0  0  0  0  0  0  0  0
    1.5000    4.5000    0.0000 B   0  0  0  0  0  0  0  0  0  0  0  0
    4.5000    4.5000    0.0000 B   0  0  0  0  0  0  0  0  0  0  0  0
    7.5000    4.5000    0.0000 B   0  0  0  0  0  0  0  0  0  0  0  0
   -6.0000   -3.7500    0.0000 B   0  0  0  0  0  0  0  0  0  0  0  0
   -3.0000   -3.7500    0.0000 B   0  0  0  0  0  0  0  0  0  0  0  0
    0.0000   -3.7500    0.0000 B   0  0  0  0  0  0  0  0  0  0  0  0
    3.0000   -3.7500    0.0000 B   0  0  0  0  0  0  0  0  0  0  0  0
    6.0000   -3.7500    0.0000 B   0  0  0  0  0  0  0  0  0  0  0  0
   -6.0000    3.7500    0.0000 B   0  0  0  0  0  0  0  0  0  0  0  0
   -3.0000    3.7500    0.0000 B   0  0  0  0  0  0  0  0  0  0  0  0
    0.0000    3.7500    0.0000 B   0  0  0  0  0  0  0  0  0  0  0  0
    3.0000    3.7500    0.0000 B   0  0  0  0  0  0  0  0  0  0  0  0
    6.0000    3.7500    0.0000 B   0  0  0  0  0  0  0  0  0  0  0  0
   -6.0000    0.0000    0.0000 B   0  0  0  0  0  0  0  0  0  0  0  0
   -8.6000   -4.5000    0.0000 H   0  0  0  0  0  0  0  0  0  0  0  0
   -8.6000   -1.5000    0.0000 H   0  0  0  0  0  0  0  0  0  0  0  0
   -8.6000    1.5000    0.0000 H   0  0  0  0  0  0  0  0  0  0  0  0
   -8.6000    4.5000    0.0000 H   0  0  0  0  0  0  0  0  0  0  0  0
    8.6000   -4.5000    0.0000 H   0  0  0  0  0  0  0  0  0  0  0  0
    8.6000   -1.5000    0.0000 H   0  0  0  0  0  0  0  0  0  0  0  0
    8.6000    1.5000    0.0000 H   0  0  0  0  0  0  0  0  0  0  0  0
  1  2  1  0  0  0  0
  2  3  4  0  0  0  0
  3  4  4  0  0  0  0
  4  5  4  0  0  0  0
  5  6  4  0  0  0  0
  6  7  4  0  0  0  0
  7  8  4  0  0  0  0
  8  9  4  0  0  0  0
  9 10  1  0  0  0  0
 10 11  1  0  0  0  0
 10 12  1  0  0  0  0
  9 13  4  0  0  0  0
  6 14  4  0  0  0  0
 13 14  4  0  0  0  0
 14 15  1  0  0  0  0
  4 16  4  0  0  0  0
 15 16  1  0  0  0  0
 16 17  4  0  0  0  0
  2 18  4  0  0  0  0
 17 18  4  0  0  0  0
 18 19  1  0  0  0  0
  1 20  1  0  0  0  0
  1 21  1  0  0  0  0
  1 22  1  0  0  0  0
  3 23  1  0  0  0  0
  7 24  1  0  0  0  0
  8 25  1  0  0  0  0
 11 26  1  0  0  0  0
 11 27  1  0  0  0  0
 11 28  1  0  0  0  0
 12 29  1  0  0  0  0
 12 30  1  0  0  0  0
 12 31  1  0  0  0  0
 13 32  1  0  0  0  0
 17 33  1  0  0  0  0
 19 34  1  0  0  0  0
 19 35  1  0  0  0  0
 36 42  1  0  0  0  0
 37 43  1  0  0  0  0
 38 44  1  0  0  0  0
 39 45  1  0  0  0  0
 40 46  1  0  0  0  0
 41 47  1  0  0  0  0
 42 48  1  0  0  0  0
 43 49  1  0  0  0  0
 44 50  1  0  0  0  0
 45 51  1  0  0  0  0
 46 52  1  0  0  0  0
 47 53  1  0  0  0  0
 48 54  1  0  0  0  0
 49 55  1  0  0  0  0
 50 56  2  0  0  0  0
 51 57  1  0  0  0  0
 19 58  1  0  0  0  0
 52 58  1  0  0  0  0
 53 59  2  0  0  0  0
 54 60  1  0  0  0  0
 55 61  1  0  0  0  0
 56 62  2  0  0  0  0
 57 63  2  0  0  0  0
 58 64  2  0  0  0  0
 59 65  2  0  0  0  0
 60 66  1  0  0  0  0
 61 67  1  0  0  0  0
 62 68  1  0  0  0  0
 63 69  1  0  0  0  0
 64 70  1  0  0  0  0
 65 71  1  0  0  0  0
 66 72  1  0  0  0  0
 67 73  1  0  0  0  0
 68 74  1  0  0  0  0
 69 75  1  0  0  0  0
 70 76  1  0  0  0  0
 71 77  2  0  0  0  0
 36 78  1  0  0  0  0
 37 78  1  0  0  0  0
 42 78  1  0  0  0  0
 43 78  1  0  0  0  0
 37 79  1  0  0  0  0
 38 79  1  0  0  0  0
 43 79  1  0  0  0  0
 44 79  1  0  0  0  0
 38 80  1  0  0  0  0
 39 80  1  0  0  0  0
 44 80  1  0  0  0  0
 45 80  1  0  0  0  0
 39 81  1  0  0  0  0
 40 81  1  0  0  0  0
 45 81  1  0  0  0  0
 46 81  1  0  0  0  0
 40 82  1  0  0  0  0
 41 82  1  0  0  0  0
 46 82  1  0  0  0  0
 47 82  1  0  0  0  0
 66 83  1  0  0  0  0
 67 83  1  0  0  0  0
 72 83  1  0  0  0  0
 73 83  1  0  0  0  0
 67 84  1  0  0  0  0
 68 84  1  0  0  0  0
 73 84  1  0  0  0  0
 74 84  1  0  0  0  0
 68 85  1  0  0  0  0
 69 85  1  0  0  0  0
 74 85  1  0  0  0  0
 75 85  1  0  0  0  0
 69 86  1  0  0  0  0
 70 86  1  0  0  0  0
 75 86  1  0  0  0  0
 76 86  1  0  0  0  0
 70 87  1  0  0  0  0
 71 87  1  0  0  0  0
 76 87  1  0  0  0  0
 77 87  1  0  0  0  0
 48 88  1  0  0  0  0
 49 88  1  0  0  0  0
 54 88  1  0  0  0  0
 55 88  1  0  0  0  0
 60 88  1  0  0  0  0
 61 88  1  0  0  0  0
 36 89  1  0  0  0  0
 48 90  1  0  0  0  0
 60 91  1  0  0  0  0
 72 92  1  0  0  0  0
 41 93  1  0  0  0  0
 53 94  1  0  0  0  0
 65 95  1  0  0  0  0
M  END
