 xtb: 6.7.1pre (5071a88)
          09012620283D

 90127  0     0  0            999 V2000
    5.6838    0.8554    9.5587 C   0  0  0  0  0  0  0  0  0  0  0  0
    4.3324    0.4481    9.0388 C   0  0  0  0  0  0  0  0  0  0  0  0
    3.1957    0.6745    9.8430 C   0  0  0  0  0  0  0  0  0  0  0  0
    1.9079    0.3680    9.4362 C   0  0  0  0  0  0  0  0  0  0  0  0
    0.9174    0.6348   10.3093 N   0  0  0  0  0  0  0  0  0  0  0  0
   -0.3821    0.4009   10.0402 C   0  0  0  0  0  0  0  0  0  0  0  0
   -1.2910    0.7234   11.0263 C   0  0  0  0  0  0  0  0  0  0  0  0
   -2.6747    0.5259   10.8709 C   0  0  0  0  0  0  0  0  0  0  0  0
   -3.2260   -0.0222    9.7054 C   0  0  0  0  0  0  0  0  0  0  0  0
   -4.6026   -0.2031    9.5443 N   0  0  0  0  0  0  0  0  0  0  0  0
   -5.0905   -1.0249    8.4372 C   0  0  0  0  0  0  0  0  0  0  0  0
   -5.4705   -0.1489   10.7202 C   0  0  0  0  0  0  0  0  0  0  0  0
   -2.3031   -0.3341    8.6963 C   0  0  0  0  0  0  0  0  0  0  0  0
   -0.9155   -0.1353    8.8553 C   0  0  0  0  0  0  0  0  0  0  0  0
    0.1516   -0.5898    7.4877 S   0  0  0  0  0  0  0  0  0  0  0  0
    1.7660   -0.1794    8.1476 C   0  0  0  0  0  0  0  0  0  0  0  0
    2.8835   -0.4182    7.3312 C   0  0  0  0  0  0  0  0  0  0  0  0
    4.1780   -0.1586    7.7860 C   0  0  0  0  0  0  0  0  0  0  0  0
    5.2537   -0.3061    6.9009 N   0  0  0  0  0  0  0  0  0  0  0  0
    6.3178   -0.0266    9.6945 H   0  0  0  0  0  0  0  0  0  0  0  0
    6.1668    1.5495    8.8634 H   0  0  0  0  0  0  0  0  0  0  0  0
    5.6084    1.3625   10.5265 H   0  0  0  0  0  0  0  0  0  0  0  0
    3.3218    1.1224   10.8281 H   0  0  0  0  0  0  0  0  0  0  0  0
   -0.9255    1.1504   11.9583 H   0  0  0  0  0  0  0  0  0  0  0  0
   -3.3040    0.8252   11.7038 H   0  0  0  0  0  0  0  0  0  0  0  0
   -4.8096   -0.5940    7.4702 H   0  0  0  0  0  0  0  0  0  0  0  0
   -6.1850   -1.0795    8.4341 H   0  0  0  0  0  0  0  0  0  0  0  0
   -4.7087   -2.0492    8.5098 H   0  0  0  0  0  0  0  0  0  0  0  0
   -6.5193   -0.3149   10.4493 H   0  0  0  0  0  0  0  0  0  0  0  0
   -5.1924   -0.9172   11.4500 H   0  0  0  0  0  0  0  0  0  0  0  0
   -5.4360    0.8385   11.1930 H   0  0  0  0  0  0  0  0  0  0  0  0
   -2.6443   -0.7417    7.7495 H   0  0  0  0  0  0  0  0  0  0  0  0
    2.7385   -0.8152    6.3293 H   0  0  0  0  0  0  0  0  0  0  0  0
    5.1023   -1.0006    6.1757 H   0  0  0  0  0  0  0  0  0  0  0  0
    6.1552   -0.4201    7.3522 H   0  0  0  0  0  0  0  0  0  0  0  0
   -4.7806   -2.6045    0.3173 B   0  0  0  0  0  0  0  0  0  0  0  0
   -4.5695   -1.3567   -0.6480 B   0  0  0  0  0  0  0  0  0  0  0  0
   -4.4639   -0.2474   -1.8829 B   0  0  0  0  0  0  0  0  0  0  0  0
   -3.3965   -2.6620   -0.5028 B   0  0  0  0  0  0  0  0  0  0  0  0
   -3.0380    0.1776   -1.4048 B   0  0  0  0  0  0  0  0  0  0  0  0
   -4.3909    0.3426   -0.1924 B   0  0  0  0  0  0  0  0  0  0  0  0
   -5.0310    1.4031    0.8192 B   0  0  0  0  0  0  0  0  0  0  0  0
   -4.6201    2.9864    0.9976 B   0  0  0  0  0  0  0  0  0  0  0  0
   -2.8089    0.5128    0.1995 B   0  0  0  0  0  0  0  0  0  0  0  0
   -3.2186    3.2275    1.7932 B   0  0  0  0  0  0  0  0  0  0  0  0
   -2.1611   -3.7758   -0.5843 B   0  0  0  0  0  0  0  0  0  0  0  0
   -1.8769   -2.2481   -0.9334 B   0  0  0  0  0  0  0  0  0  0  0  0
   -1.6972   -0.6133   -0.8358 B   0  0  0  0  0  0  0  0  0  0  0  0
   -0.5844   -3.2190   -0.8350 B   0  0  0  0  0  0  0  0  0  0  0  0
   -0.2198   -0.1484   -0.3118 B   0  0  0  0  0  0  0  0  0  0  0  0
   -1.3950    0.0358    0.8521 B   0  0  0  0  0  0  0  0  0  0  0  0
   -1.7757    1.6621    0.7592 B   0  0  0  0  0  0  0  0  0  0  0  0
   -1.8975    3.2370    0.8826 B   0  0  0  0  0  0  0  0  0  0  0  0
   -0.2153    1.0372    1.0697 B   0  0  0  0  0  0  0  0  0  0  0  0
   -0.7521    4.3480    0.5584 B   0  0  0  0  0  0  0  0  0  0  0  0
    0.8265   -4.1129   -0.7400 B   0  0  0  0  0  0  0  0  0  0  0  0
    0.9251   -2.5054   -0.7497 B   0  0  0  0  0  0  0  0  0  0  0  0
    1.2144   -0.9490   -0.5870 B   0  0  0  0  0  0  0  0  0  0  0  0
    2.2007   -3.4026   -0.1682 B   0  0  0  0  0  0  0  0  0  0  0  0
    2.6220   -0.1957   -0.2930 B   0  0  0  0  0  0  0  0  0  0  0  0
    1.2341    0.5516    0.1426 B   0  0  0  0  0  0  0  0  0  0  0  0
    1.1248    2.0009    1.0430 B   0  0  0  0  0  0  0  0  0  0  0  0
    0.5366    3.4372    0.6180 B   0  0  0  0  0  0  0  0  0  0  0  0
    2.4580    1.6726    0.0875 B   0  0  0  0  0  0  0  0  0  0  0  0
    1.2136    3.0171   -0.8530 B   0  0  0  0  0  0  0  0  0  0  0  0
    3.2202   -3.8508    1.1044 B   0  0  0  0  0  0  0  0  0  0  0  0
    3.6240   -2.6535    0.0637 B   0  0  0  0  0  0  0  0  0  0  0  0
    4.0250   -1.1219   -0.2366 B   0  0  0  0  0  0  0  0  0  0  0  0
    4.4174   -2.8355    1.4203 B   0  0  0  0  0  0  0  0  0  0  0  0
    5.3636   -0.2419   -0.6898 B   0  0  0  0  0  0  0  0  0  0  0  0
    4.1041    0.5310   -0.0135 B   0  0  0  0  0  0  0  0  0  0  0  0
    4.0181    2.3218   -0.0338 B   0  0  0  0  0  0  0  0  0  0  0  0
    2.8218    3.0968   -0.9129 B   0  0  0  0  0  0  0  0  0  0  0  0
    5.4220    1.4583   -0.1853 B   0  0  0  0  0  0  0  0  0  0  0  0
    4.2961    3.5501   -1.0140 B   0  0  0  0  0  0  0  0  0  0  0  0
   -5.1687   -3.0949    1.3107 H   0  0  0  0  0  0  0  0  0  0  0  0
   -5.7161   -2.0764   -0.3935 H   0  0  0  0  0  0  0  0  0  0  0  0
   -5.2640   -0.1207   -2.7417 H   0  0  0  0  0  0  0  0  0  0  0  0
   -5.7711    1.0074    1.6646 H   0  0  0  0  0  0  0  0  0  0  0  0
   -5.3645    3.8431    0.6720 H   0  0  0  0  0  0  0  0  0  0  0  0
   -3.2343    3.2250    2.9757 H   0  0  0  0  0  0  0  0  0  0  0  0
   -2.3593   -4.9262   -0.4732 H   0  0  0  0  0  0  0  0  0  0  0  0
   -0.8965    5.4755    0.2443 H   0  0  0  0  0  0  0  0  0  0  0  0
    0.8223   -5.2498   -1.0233 H   0  0  0  0  0  0  0  0  0  0  0  0
    0.5537    2.6943   -1.7837 H   0  0  0  0  0  0  0  0  0  0  0  0
    2.9703   -4.8176    1.7172 H   0  0  0  0  0  0  0  0  0  0  0  0
    5.2631   -2.5125    2.1565 H   0  0  0  0  0  0  0  0  0  0  0  0
    6.3848   -0.6467   -1.0956 H   0  0  0  0  0  0  0  0  0  0  0  0
    6.5032    1.8382    0.0650 H   0  0  0  0  0  0  0  0  0  0  0  0
    5.1389    4.2524   -1.4154 H   0  0  0  0  0  0  0  0  0  0  0  0
  1  2  1  0  0  0  0
  2  3  4  0  0  0  0
  3  4  4  0  0  0  0
  4  5  4  0  0  0  0
  5  6  4  0  0  0  0
  6  7  4  0  0  0  0
  7  8  2  0  0  0  0
  8  9  4  0  0  0  0
  9 10  1  0  0  0  0
 10 11  1  0  0  0  0
 10 12  1  0  0  0  0
  9 13  4  0  0  0  0
  6 14  4  0  0  0  0
 13 14  4  0  0  0  0
 14 15  1  0  0  0  0
  4 16  4  0  0  0  0
 15 16  1  0  0  0  0
 16 17  4  0  0  0  0
  2 18  4  0  0  0  0
 17 18  4  0  0  0  0
 18 19  1  0  0  0  0
  1 20  1  0  0  0  0
  1 21  1  0  0  0  0
  1 22  1  0  0  0  0
  3 23  1  0  0  0  0
  7 24  1  0  0  0  0
  8 25  1  0  0  0  0
 11 26  1  0  0  0  0
 11 27  1  0  0  0  0
 11 28  1  0  0  0  0
 12 29  1  0  0  0  0
 12 30  1  0  0  0  0
 12 31  1  0  0  0  0
 13 32  1  0  0  0  0
 17 33  1  0  0  0  0
 19 34  1  0  0  0  0
 19 35  1  0  0  0  0
 36 37  1  0  0  0  0
 37 38  1  0  0  0  0
 36 39  1  0  0  0  0
 37 39  1  0  0  0  0
 38 40  1  0  0  0  0
 37 41  1  0  0  0  0
 38 41  1  0  0  0  0
 40 41  1  0  0  0  0
 41 42  1  0  0  0  0
 42 43  1  0  0  0  0
 40 44  1  0  0  0  0
 41 44  1  0  0  0  0
 43 45  1  0  0  0  0
 39 46  1  0  0  0  0
 39 47  1  0  0  0  0
 46 47  1  0  0  0  0
 40 48  1  0  0  0  0
 44 48  1  0  0  0  0
 47 48  1  0  0  0  0
 46 49  1  0  0  0  0
 47 49  1  0  0  0  0
 48 50  1  0  0  0  0
 44 51  1  0  0  0  0
 48 51  1  0  0  0  0
 50 51  1  0  0  0  0
 44 52  1  0  0  0  0
 51 52  1  0  0  0  0
 45 53  1  0  0  0  0
 52 53  1  0  0  0  0
 50 54  1  0  0  0  0
 51 54  1  0  0  0  0
 52 54  1  0  0  0  0
 53 55  1  0  0  0  0
 49 56  1  0  0  0  0
 49 57  1  0  0  0  0
 56 57  1  0  0  0  0
 50 58  1  0  0  0  0
 57 58  1  0  0  0  0
 56 59  1  0  0  0  0
 57 59  1  0  0  0  0
 58 60  1  0  0  0  0
 50 61  1  0  0  0  0
 54 61  1  0  0  0  0
 58 61  1  0  0  0  0
 60 61  1  0  0  0  0
 54 62  1  0  0  0  0
 61 62  1  0  0  0  0
 55 63  1  0  0  0  0
 62 63  1  0  0  0  0
 60 64  1  0  0  0  0
 61 64  1  0  0  0  0
 62 64  1  0  0  0  0
 63 65  1  0  0  0  0
 59 66  1  0  0  0  0
 59 67  1  0  0  0  0
 66 67  1  0  0  0  0
 60 68  1  0  0  0  0
 67 68  1  0  0  0  0
 66 69  1  0  0  0  0
 67 69  1  0  0  0  0
 68 70  1  0  0  0  0
 60 71  1  0  0  0  0
 68 71  1  0  0  0  0
 70 71  1  0  0  0  0
 64 72  1  0  0  0  0
 71 72  1  0  0  0  0
 64 73  1  0  0  0  0
 65 73  1  0  0  0  0
 72 73  1  0  0  0  0
 70 74  1  0  0  0  0
 71 74  1  0  0  0  0
 72 74  1  0  0  0  0
 72 75  1  0  0  0  0
 73 75  1  0  0  0  0
 36 76  1  0  0  0  0
 36 77  1  0  0  0  0
 37 77  1  0  0  0  0
 38 78  1  0  0  0  0
 42 79  1  0  0  0  0
 43 80  1  0  0  0  0
 45 81  1  0  0  0  0
 46 82  1  0  0  0  0
 55 83  1  0  0  0  0
 56 84  1  0  0  0  0
 65 85  1  0  0  0  0
 66 86  1  0  0  0  0
 69 87  1  0  0  0  0
 70 88  1  0  0  0  0
 74 89  1  0  0  0  0
 75 90  1  0  0  0  0
M  CHG  1   1   1
M  END
