 xtb: 6.7.1pre (5071a88)
          09012616343D

 95137  0     0  0            999 V2000
    5.6838    0.8554    8.3315 C   0  0  0  0  0  0  0  0  0  0  0  0
    4.3324    0.4481    7.8116 C   0  0  0  0  0  0  0  0  0  0  0  0
    3.1957    0.6745    8.6158 C   0  0  0  0  0  0  0  0  0  0  0  0
    1.9079    0.3680    8.2090 C   0  0  0  0  0  0  0  0  0  0  0  0
    0.9174    0.6348    9.0821 N   0  0  0  0  0  0  0  0  0  0  0  0
   -0.3821    0.4009    8.8130 C   0  0  0  0  0  0  0  0  0  0  0  0
   -1.2910    0.7234    9.7991 C   0  0  0  0  0  0  0  0  0  0  0  0
   -2.6747    0.5259    9.6437 C   0  0  0  0  0  0  0  0  0  0  0  0
   -3.2260   -0.0222    8.4782 C   0  0  0  0  0  0  0  0  0  0  0  0
   -4.6026   -0.2031    8.3171 N   0  0  0  0  0  0  0  0  0  0  0  0
   -5.0905   -1.0249    7.2100 C   0  0  0  0  0  0  0  0  0  0  0  0
   -5.4705   -0.1489    9.4929 C   0  0  0  0  0  0  0  0  0  0  0  0
   -2.3031   -0.3341    7.4691 C   0  0  0  0  0  0  0  0  0  0  0  0
   -0.9155   -0.1353    7.6281 C   0  0  0  0  0  0  0  0  0  0  0  0
    0.1516   -0.5898    6.2605 S   0  0  0  0  0  0  0  0  0  0  0  0
    1.7660   -0.1794    6.9203 C   0  0  0  0  0  0  0  0  0  0  0  0
    2.8835   -0.4182    6.1040 C   0  0  0  0  0  0  0  0  0  0  0  0
    4.1780   -0.1586    6.5588 C   0  0  0  0  0  0  0  0  0  0  0  0
    5.2537   -0.3061    5.6737 N   0  0  0  0  0  0  0  0  0  0  0  0
    6.3178   -0.0266    8.4673 H   0  0  0  0  0  0  0  0  0  0  0  0
    6.1668    1.5495    7.6362 H   0  0  0  0  0  0  0  0  0  0  0  0
    5.6084    1.3625    9.2993 H   0  0  0  0  0  0  0  0  0  0  0  0
    3.3218    1.1224    9.6009 H   0  0  0  0  0  0  0  0  0  0  0  0
   -0.9255    1.1504   10.7310 H   0  0  0  0  0  0  0  0  0  0  0  0
   -3.3040    0.8252   10.4766 H   0  0  0  0  0  0  0  0  0  0  0  0
   -4.8096   -0.5940    6.2430 H   0  0  0  0  0  0  0  0  0  0  0  0
   -6.1850   -1.0795    7.2068 H   0  0  0  0  0  0  0  0  0  0  0  0
   -4.7087   -2.0492    7.2825 H   0  0  0  0  0  0  0  0  0  0  0  0
   -6.5193   -0.3149    9.2221 H   0  0  0  0  0  0  0  0  0  0  0  0
   -5.1924   -0.9172   10.2228 H   0  0  0  0  0  0  0  0  0  0  0  0
   -5.4360    0.8385    9.9658 H   0  0  0  0  0  0  0  0  0  0  0  0
   -2.6443   -0.7417    6.5223 H   0  0  0  0  0  0  0  0  0  0  0  0
    2.7385   -0.8152    5.1020 H   0  0  0  0  0  0  0  0  0  0  0  0
    5.1023   -1.0006    4.9485 H   0  0  0  0  0  0  0  0  0  0  0  0
    6.1552   -0.4201    6.1249 H   0  0  0  0  0  0  0  0  0  0  0  0
   -6.9256   -4.6511    0.2587 B   0  0  0  0  0  0  0  0  0  0  0  0
   -5.1098   -2.2493    0.3222 B   0  0  0  0  0  0  0  0  0  0  0  0
   -3.5915   -2.1814    0.2128 B   0  0  0  0  0  0  0  0  0  0  0  0
    0.9993   -2.8754    0.0638 B   0  0  0  0  0  0  0  0  0  0  0  0
    2.4759   -3.0122   -0.2709 B   0  0  0  0  0  0  0  0  0  0  0  0
    5.2994   -3.8314   -0.6672 B   0  0  0  0  0  0  0  0  0  0  0  0
    6.3183   -4.8359   -1.1558 B   0  0  0  0  0  0  0  0  0  0  0  0
   -6.4348   -3.1583    0.2864 B   0  0  0  0  0  0  0  0  0  0  0  0
   -6.7520   -1.6338    0.3164 B   0  0  0  0  0  0  0  0  0  0  0  0
   -2.0526   -2.3173    0.3349 B   0  0  0  0  0  0  0  0  0  0  0  0
   -0.4841   -2.4619    0.2574 B   0  0  0  0  0  0  0  0  0  0  0  0
    4.0184   -2.9011   -0.2872 B   0  0  0  0  0  0  0  0  0  0  0  0
    5.7532   -2.2815   -0.3028 B   0  0  0  0  0  0  0  0  0  0  0  0
    6.8301   -3.2288   -1.0929 B   0  0  0  0  0  0  0  0  0  0  0  0
   -7.6564   -0.2550    0.3431 B   0  0  0  0  0  0  0  0  0  0  0  0
   -6.0374   -0.1395    0.1913 B   0  0  0  0  0  0  0  0  0  0  0  0
   -4.4316   -0.5357    0.2239 B   0  0  0  0  0  0  0  0  0  0  0  0
   -2.7379   -0.6604    0.3290 B   0  0  0  0  0  0  0  0  0  0  0  0
   -1.0518   -0.9157    0.6419 B   0  0  0  0  0  0  0  0  0  0  0  0
    0.5171   -1.1722    0.7257 B   0  0  0  0  0  0  0  0  0  0  0  0
    3.1231   -1.4831   -0.0635 B   0  0  0  0  0  0  0  0  0  0  0  0
    4.7001   -1.1340    0.3402 B   0  0  0  0  0  0  0  0  0  0  0  0
    6.2667   -0.7872    0.2517 B   0  0  0  0  0  0  0  0  0  0  0  0
    7.6720   -0.3517    1.0327 B   0  0  0  0  0  0  0  0  0  0  0  0
   -6.9181    1.2121    0.1915 B   0  0  0  0  0  0  0  0  0  0  0  0
   -3.4184    0.7801    0.0809 B   0  0  0  0  0  0  0  0  0  0  0  0
   -1.6542    0.5326    0.1239 B   0  0  0  0  0  0  0  0  0  0  0  0
    1.8622   -0.4037    0.3246 B   0  0  0  0  0  0  0  0  0  0  0  0
    3.5847   -0.1504    0.7852 B   0  0  0  0  0  0  0  0  0  0  0  0
    6.9910    0.6111   -0.1068 B   0  0  0  0  0  0  0  0  0  0  0  0
    8.3074    1.0629    0.6316 B   0  0  0  0  0  0  0  0  0  0  0  0
   -7.6194    2.8040    0.2986 B   0  0  0  0  0  0  0  0  0  0  0  0
   -6.1238    2.5185   -0.1765 B   0  0  0  0  0  0  0  0  0  0  0  0
   -3.5886    2.3277   -0.2368 B   0  0  0  0  0  0  0  0  0  0  0  0
   -0.9061    1.8195   -0.4198 B   0  0  0  0  0  0  0  0  0  0  0  0
    1.6234    1.0199   -0.4108 B   0  0  0  0  0  0  0  0  0  0  0  0
    3.0108    1.3090    0.5297 B   0  0  0  0  0  0  0  0  0  0  0  0
    6.3729    1.8582   -0.9160 B   0  0  0  0  0  0  0  0  0  0  0  0
   -6.5277    4.0456   -0.1608 B   0  0  0  0  0  0  0  0  0  0  0  0
   -4.8736    3.4948   -0.3884 B   0  0  0  0  0  0  0  0  0  0  0  0
   -3.4155    3.8801   -0.6064 B   0  0  0  0  0  0  0  0  0  0  0  0
   -2.0235    3.2206   -0.6767 B   0  0  0  0  0  0  0  0  0  0  0  0
   -0.4974    3.2796   -0.8970 B   0  0  0  0  0  0  0  0  0  0  0  0
    0.7107    2.3324   -0.7457 B   0  0  0  0  0  0  0  0  0  0  0  0
    2.3353    2.4781   -0.4754 B   0  0  0  0  0  0  0  0  0  0  0  0
    3.8161    2.6195   -0.0941 B   0  0  0  0  0  0  0  0  0  0  0  0
    5.3698    2.8646   -0.1489 B   0  0  0  0  0  0  0  0  0  0  0  0
    6.0551    4.0800    0.6312 B   0  0  0  0  0  0  0  0  0  0  0  0
    6.2041    5.1477    0.1463 H   0  0  0  0  0  0  0  0  0  0  0  0
    8.2184   -1.1210    1.7268 H   0  0  0  0  0  0  0  0  0  0  0  0
    6.6224    1.9818   -2.0674 H   0  0  0  0  0  0  0  0  0  0  0  0
   -7.0900   -5.2506   -0.7538 H   0  0  0  0  0  0  0  0  0  0  0  0
   -6.7912    5.1815   -0.2852 H   0  0  0  0  0  0  0  0  0  0  0  0
    9.1569    1.8466    0.7900 H   0  0  0  0  0  0  0  0  0  0  0  0
   -8.8277   -0.3758    0.3286 H   0  0  0  0  0  0  0  0  0  0  0  0
    6.7839   -5.8690   -1.4465 H   0  0  0  0  0  0  0  0  0  0  0  0
   -8.7247    3.0012    0.6388 H   0  0  0  0  0  0  0  0  0  0  0  0
    7.8918   -2.8835   -1.4737 H   0  0  0  0  0  0  0  0  0  0  0  0
    6.4282    3.9996    1.7485 H   0  0  0  0  0  0  0  0  0  0  0  0
   -7.2249   -5.2823    1.2187 H   0  0  0  0  0  0  0  0  0  0  0  0
  1  2  1  0  0  0  0
  2  3  4  0  0  0  0
  3  4  4  0  0  0  0
  4  5  4  0  0  0  0
  5  6  4  0  0  0  0
  6  7  4  0  0  0  0
  7  8  4  0  0  0  0
  8  9  4  0  0  0  0
  9 10  1  0  0  0  0
 10 11  1  0  0  0  0
 10 12  1  0  0  0  0
  9 13  4  0  0  0  0
  6 14  4  0  0  0  0
 13 14  4  0  0  0  0
 14 15  1  0  0  0  0
  4 16  4  0  0  0  0
 15 16  1  0  0  0  0
 16 17  4  0  0  0  0
  2 18  4  0  0  0  0
 17 18  4  0  0  0  0
 18 19  1  0  0  0  0
  1 20  1  0  0  0  0
  1 21  1  0  0  0  0
  1 22  1  0  0  0  0
  3 23  1  0  0  0  0
  7 24  1  0  0  0  0
  8 25  1  0  0  0  0
 11 26  1  0  0  0  0
 11 27  1  0  0  0  0
 11 28  1  0  0  0  0
 12 29  1  0  0  0  0
 12 30  1  0  0  0  0
 12 31  1  0  0  0  0
 13 32  1  0  0  0  0
 17 33  1  0  0  0  0
 19 34  1  0  0  0  0
 19 35  1  0  0  0  0
 37 38  1  0  0  0  0
 39 40  2  0  0  0  0
 41 42  1  0  0  0  0
 36 43  1  0  0  0  0
 37 43  1  0  0  0  0
 37 44  1  0  0  0  0
 43 44  1  0  0  0  0
 38 45  1  0  0  0  0
 39 46  1  0  0  0  0
 45 46  1  0  0  0  0
 40 47  1  0  0  0  0
 41 47  1  0  0  0  0
 41 48  1  0  0  0  0
 47 48  1  0  0  0  0
 41 49  1  0  0  0  0
 42 49  1  0  0  0  0
 48 49  1  0  0  0  0
 44 50  1  0  0  0  0
 44 51  1  0  0  0  0
 50 51  1  0  0  0  0
 37 52  1  0  0  0  0
 38 52  1  0  0  0  0
 51 52  1  0  0  0  0
 38 53  1  0  0  0  0
 45 53  1  0  0  0  0
 52 53  1  0  0  0  0
 45 54  1  0  0  0  0
 46 54  1  0  0  0  0
 53 54  1  0  0  0  0
 39 55  1  0  0  0  0
 46 55  1  0  0  0  0
 54 55  1  0  0  0  0
 40 56  1  0  0  0  0
 47 56  1  0  0  0  0
 47 57  1  0  0  0  0
 48 57  1  0  0  0  0
 56 57  1  0  0  0  0
 48 58  1  0  0  0  0
 57 58  1  0  0  0  0
 58 59  1  0  0  0  0
 50 60  1  0  0  0  0
 51 60  1  0  0  0  0
 52 61  1  0  0  0  0
 53 61  1  0  0  0  0
 53 62  1  0  0  0  0
 54 62  1  0  0  0  0
 61 62  1  0  0  0  0
 55 63  1  0  0  0  0
 56 63  1  0  0  0  0
 56 64  1  0  0  0  0
 57 64  1  0  0  0  0
 63 64  1  0  0  0  0
 58 65  1  0  0  0  0
 59 65  1  0  0  0  0
 59 66  1  0  0  0  0
 65 66  1  0  0  0  0
 60 67  1  0  0  0  0
 60 68  1  0  0  0  0
 67 68  1  0  0  0  0
 61 69  1  0  0  0  0
 62 70  1  0  0  0  0
 63 71  1  0  0  0  0
 64 72  1  0  0  0  0
 71 72  1  0  0  0  0
 65 73  1  0  0  0  0
 67 74  1  0  0  0  0
 68 74  1  0  0  0  0
 68 75  1  0  0  0  0
 69 75  1  0  0  0  0
 74 75  1  0  0  0  0
 69 76  1  0  0  0  0
 75 76  1  0  0  0  0
 69 77  1  0  0  0  0
 70 77  1  0  0  0  0
 76 77  1  0  0  0  0
 70 78  1  0  0  0  0
 77 78  1  0  0  0  0
 70 79  1  0  0  0  0
 71 79  1  0  0  0  0
 78 79  1  0  0  0  0
 71 80  1  0  0  0  0
 72 80  1  0  0  0  0
 79 80  1  0  0  0  0
 72 81  1  0  0  0  0
 80 81  1  0  0  0  0
 73 82  1  0  0  0  0
 81 82  1  0  0  0  0
 82 83  1  0  0  0  0
 83 84  1  0  0  0  0
 59 85  1  0  0  0  0
 73 86  1  0  0  0  0
 36 87  1  0  0  0  0
 74 88  1  0  0  0  0
 66 89  1  0  0  0  0
 50 90  1  0  0  0  0
 42 91  1  0  0  0  0
 67 92  1  0  0  0  0
 49 93  1  0  0  0  0
 83 94  1  0  0  0  0
 36 95  1  0  0  0  0
M  CHG  1   1   1
M  END
