 xtb: 6.7.1 (edcfbbe)
          09242620033D

 60110  0     0  0            999 V2000
   -5.7581    3.5616   -0.2966 B   0  0  0  0  0  0  0  0  0  0  0  0
   -5.7738    1.8963    0.1087 B   0  0  0  0  0  0  0  0  0  0  0  0
   -4.2913    4.3985    0.0504 B   0  0  0  0  0  0  0  0  0  0  0  0
   -4.3108    2.7121   -0.0510 B   0  0  0  0  0  0  0  0  0  0  0  0
   -4.3268    1.0122   -0.0882 B   0  0  0  0  0  0  0  0  0  0  0  0
   -5.8102   -1.4998    0.1849 B   0  0  0  0  0  0  0  0  0  0  0  0
   -5.8257   -3.1910   -0.0569 B   0  0  0  0  0  0  0  0  0  0  0  0
   -4.3436   -0.6611   -0.0377 B   0  0  0  0  0  0  0  0  0  0  0  0
   -4.3632   -2.3537    0.1262 B   0  0  0  0  0  0  0  0  0  0  0  0
   -4.3778   -4.0270    0.3672 B   0  0  0  0  0  0  0  0  0  0  0  0
   -2.8289    3.5525   -0.0628 B   0  0  0  0  0  0  0  0  0  0  0  0
   -2.8501    1.8400   -0.1514 B   0  0  0  0  0  0  0  0  0  0  0  0
   -1.3627    4.3567   -0.3446 B   0  0  0  0  0  0  0  0  0  0  0  0
   -1.3790    2.6778   -0.1677 B   0  0  0  0  0  0  0  0  0  0  0  0
   -1.3962    0.9895    0.0106 B   0  0  0  0  0  0  0  0  0  0  0  0
   -2.8842   -1.5204    0.0005 B   0  0  0  0  0  0  0  0  0  0  0  0
   -2.8986   -3.2223    0.1890 B   0  0  0  0  0  0  0  0  0  0  0  0
   -1.4134   -0.6900    0.0736 B   0  0  0  0  0  0  0  0  0  0  0  0
   -1.4309   -2.3863    0.0731 B   0  0  0  0  0  0  0  0  0  0  0  0
   -1.4474   -4.0752    0.0153 B   0  0  0  0  0  0  0  0  0  0  0  0
    0.0962    3.5137   -0.2413 B   0  0  0  0  0  0  0  0  0  0  0  0
    0.0790    1.8157   -0.0095 B   0  0  0  0  0  0  0  0  0  0  0  0
    1.5691    4.3348   -0.2280 B   0  0  0  0  0  0  0  0  0  0  0  0
    1.5523    2.6499   -0.1312 B   0  0  0  0  0  0  0  0  0  0  0  0
    1.5344    0.9550   -0.0973 B   0  0  0  0  0  0  0  0  0  0  0  0
    0.0446   -1.5488    0.0434 B   0  0  0  0  0  0  0  0  0  0  0  0
    0.0277   -3.2533    0.1445 B   0  0  0  0  0  0  0  0  0  0  0  0
    1.5168   -0.7251   -0.0565 B   0  0  0  0  0  0  0  0  0  0  0  0
    1.5008   -2.4129    0.1462 B   0  0  0  0  0  0  0  0  0  0  0  0
    1.4834   -4.0850    0.3986 B   0  0  0  0  0  0  0  0  0  0  0  0
    3.0227    3.4924   -0.0385 B   0  0  0  0  0  0  0  0  0  0  0  0
    3.0082    1.7805   -0.1607 B   0  0  0  0  0  0  0  0  0  0  0  0
    4.4992    4.3083    0.0641 B   0  0  0  0  0  0  0  0  0  0  0  0
    4.4832    2.6230    0.0052 B   0  0  0  0  0  0  0  0  0  0  0  0
    4.4649    0.9247   -0.0161 B   0  0  0  0  0  0  0  0  0  0  0  0
    2.9735   -1.5787    0.0347 B   0  0  0  0  0  0  0  0  0  0  0  0
    2.9534   -3.2857    0.1114 B   0  0  0  0  0  0  0  0  0  0  0  0
    4.4475   -0.7501   -0.0344 B   0  0  0  0  0  0  0  0  0  0  0  0
    4.4322   -2.4483   -0.0114 B   0  0  0  0  0  0  0  0  0  0  0  0
    4.4117   -4.1346   -0.0368 B   0  0  0  0  0  0  0  0  0  0  0  0
    5.9508    3.4422   -0.2830 B   0  0  0  0  0  0  0  0  0  0  0  0
    5.9316    1.7759    0.1517 B   0  0  0  0  0  0  0  0  0  0  0  0
    5.8968   -1.6315   -0.1657 B   0  0  0  0  0  0  0  0  0  0  0  0
    5.8823   -3.2961    0.2668 B   0  0  0  0  0  0  0  0  0  0  0  0
   -6.6905    4.1313   -0.7251 H   0  0  0  0  0  0  0  0  0  0  0  0
   -6.7309    1.4306    0.5946 H   0  0  0  0  0  0  0  0  0  0  0  0
   -4.3392    5.5166    0.4094 H   0  0  0  0  0  0  0  0  0  0  0  0
   -6.7647   -0.9655    0.5990 H   0  0  0  0  0  0  0  0  0  0  0  0
   -6.7601   -3.7895   -0.4391 H   0  0  0  0  0  0  0  0  0  0  0  0
   -4.4511   -5.1232    0.7843 H   0  0  0  0  0  0  0  0  0  0  0  0
   -1.3682    5.4925   -0.6509 H   0  0  0  0  0  0  0  0  0  0  0  0
   -1.4679   -5.2388   -0.1542 H   0  0  0  0  0  0  0  0  0  0  0  0
    1.5875    5.5073   -0.3268 H   0  0  0  0  0  0  0  0  0  0  0  0
    1.4780   -5.2101    0.7408 H   0  0  0  0  0  0  0  0  0  0  0  0
    4.5736    5.4243    0.4276 H   0  0  0  0  0  0  0  0  0  0  0  0
    4.4503   -5.2627   -0.3654 H   0  0  0  0  0  0  0  0  0  0  0  0
    6.8937    3.9836   -0.7244 H   0  0  0  0  0  0  0  0  0  0  0  0
    6.8738    1.2933    0.6560 H   0  0  0  0  0  0  0  0  0  0  0  0
    6.8490   -1.1697   -0.6687 H   0  0  0  0  0  0  0  0  0  0  0  0
    6.8183   -3.8631    0.6886 H   0  0  0  0  0  0  0  0  0  0  0  0
  1  2  1  0  0  0  0
  1  3  1  0  0  0  0
  1  4  1  0  0  0  0
  2  4  1  0  0  0  0
  3  4  1  0  0  0  0
  2  5  1  0  0  0  0
  4  5  1  0  0  0  0
  6  7  1  0  0  0  0
  5  8  1  0  0  0  0
  6  8  1  0  0  0  0
  6  9  1  0  0  0  0
  7  9  1  0  0  0  0
  8  9  1  0  0  0  0
  7 10  1  0  0  0  0
  9 10  1  0  0  0  0
  3 11  1  0  0  0  0
  4 11  1  0  0  0  0
  4 12  1  0  0  0  0
  5 12  1  0  0  0  0
 11 12  1  0  0  0  0
 11 13  1  0  0  0  0
 11 14  1  0  0  0  0
 12 14  1  0  0  0  0
 13 14  1  0  0  0  0
 12 15  1  0  0  0  0
 14 15  1  0  0  0  0
  8 16  1  0  0  0  0
  9 16  1  0  0  0  0
  9 17  1  0  0  0  0
 10 17  1  0  0  0  0
 16 17  1  0  0  0  0
 15 18  1  0  0  0  0
 16 18  1  0  0  0  0
 16 19  1  0  0  0  0
 17 19  1  0  0  0  0
 18 19  1  0  0  0  0
 17 20  1  0  0  0  0
 19 20  1  0  0  0  0
 13 21  1  0  0  0  0
 14 21  1  0  0  0  0
 14 22  1  0  0  0  0
 15 22  1  0  0  0  0
 21 22  1  0  0  0  0
 21 23  1  0  0  0  0
 21 24  1  0  0  0  0
 22 24  1  0  0  0  0
 23 24  1  0  0  0  0
 22 25  1  0  0  0  0
 24 25  1  0  0  0  0
 18 26  1  0  0  0  0
 19 26  1  0  0  0  0
 19 27  1  0  0  0  0
 20 27  1  0  0  0  0
 26 27  1  0  0  0  0
 25 28  1  0  0  0  0
 26 28  1  0  0  0  0
 26 29  1  0  0  0  0
 27 29  1  0  0  0  0
 28 29  1  0  0  0  0
 27 30  1  0  0  0  0
 29 30  1  0  0  0  0
 23 31  1  0  0  0  0
 24 31  1  0  0  0  0
 24 32  1  0  0  0  0
 25 32  1  0  0  0  0
 31 32  1  0  0  0  0
 31 33  1  0  0  0  0
 31 34  1  0  0  0  0
 32 34  1  0  0  0  0
 33 34  1  0  0  0  0
 32 35  1  0  0  0  0
 34 35  1  0  0  0  0
 28 36  1  0  0  0  0
 29 36  1  0  0  0  0
 29 37  1  0  0  0  0
 30 37  1  0  0  0  0
 36 37  1  0  0  0  0
 35 38  1  0  0  0  0
 36 38  1  0  0  0  0
 36 39  1  0  0  0  0
 37 39  1  0  0  0  0
 38 39  1  0  0  0  0
 37 40  1  0  0  0  0
 39 40  1  0  0  0  0
 33 41  1  0  0  0  0
 34 41  1  0  0  0  0
 34 42  1  0  0  0  0
 35 42  1  0  0  0  0
 41 42  1  0  0  0  0
 38 43  1  0  0  0  0
 39 43  1  0  0  0  0
 39 44  1  0  0  0  0
 40 44  1  0  0  0  0
 43 44  1  0  0  0  0
  1 45  1  0  0  0  0
  2 46  1  0  0  0  0
  3 47  1  0  0  0  0
  6 48  1  0  0  0  0
  7 49  1  0  0  0  0
 10 50  1  0  0  0  0
 13 51  1  0  0  0  0
 20 52  1  0  0  0  0
 23 53  1  0  0  0  0
 30 54  1  0  0  0  0
 33 55  1  0  0  0  0
 40 56  1  0  0  0  0
 41 57  1  0  0  0  0
 42 58  1  0  0  0  0
 43 59  1  0  0  0  0
 44 60  1  0  0  0  0
M  END
