 xtb: 6.7.1 (edcfbbe)
          09232617423D

 32 34  0     0  0            999 V2000
   -4.0375    2.1605    0.4546 C   0  0  0  0  0  0  0  0  0  0  0  0
   -3.8728    0.7670    0.1116 N   0  0  0  0  0  0  0  0  0  0  0  0
   -5.0699   -0.0172   -0.0912 C   0  0  0  0  0  0  0  0  0  0  0  0
   -2.6538    0.2229   -0.0058 C   0  0  0  0  0  0  0  0  0  0  0  0
   -2.4833   -1.1132   -0.4861 C   0  0  0  0  0  0  0  0  0  0  0  0
   -1.2529   -1.6648   -0.6184 C   0  0  0  0  0  0  0  0  0  0  0  0
   -0.0658   -0.9524   -0.2821 C   0  0  0  0  0  0  0  0  0  0  0  0
    1.0821   -1.5738   -0.4514 N   0  0  0  0  0  0  0  0  0  0  0  0
    2.2620   -1.0376   -0.1828 C   0  0  0  0  0  0  0  0  0  0  0  0
    3.4095   -1.8405   -0.4335 C   0  0  0  0  0  0  0  0  0  0  0  0
    4.6638   -1.3829   -0.1888 C   0  0  0  0  0  0  0  0  0  0  0  0
    4.8720   -0.0777    0.3345 C   0  0  0  0  0  0  0  0  0  0  0  0
    6.1150    0.3633    0.5721 N   0  0  0  0  0  0  0  0  0  0  0  0
    3.7577    0.7310    0.5926 C   0  0  0  0  0  0  0  0  0  0  0  0
    2.4818    0.2748    0.3395 C   0  0  0  0  0  0  0  0  0  0  0  0
    1.1434    1.3402    0.6703 S   0  0  0  0  0  0  0  0  0  0  0  0
   -0.2389    0.3823    0.2065 C   0  0  0  0  0  0  0  0  0  0  0  0
   -1.4889    0.9418    0.3320 C   0  0  0  0  0  0  0  0  0  0  0  0
   -3.3917    2.7884   -0.1603 H   0  0  0  0  0  0  0  0  0  0  0  0
   -3.8069    2.3389    1.5083 H   0  0  0  0  0  0  0  0  0  0  0  0
   -5.0663    2.4593    0.2739 H   0  0  0  0  0  0  0  0  0  0  0  0
   -5.0187   -0.9547    0.4632 H   0  0  0  0  0  0  0  0  0  0  0  0
   -5.9305    0.5386    0.2711 H   0  0  0  0  0  0  0  0  0  0  0  0
   -5.2251   -0.2380   -1.1502 H   0  0  0  0  0  0  0  0  0  0  0  0
   -3.3457   -1.6915   -0.7705 H   0  0  0  0  0  0  0  0  0  0  0  0
   -1.1239   -2.6681   -0.9910 H   0  0  0  0  0  0  0  0  0  0  0  0
    3.2326   -2.8279   -0.8281 H   0  0  0  0  0  0  0  0  0  0  0  0
    5.5236   -2.0043   -0.3871 H   0  0  0  0  0  0  0  0  0  0  0  0
    6.9110   -0.2192    0.3763 H   0  0  0  0  0  0  0  0  0  0  0  0
    6.2740    1.2844    0.9428 H   0  0  0  0  0  0  0  0  0  0  0  0
    3.8998    1.7250    0.9903 H   0  0  0  0  0  0  0  0  0  0  0  0
   -1.5557    1.9453    0.7183 H   0  0  0  0  0  0  0  0  0  0  0  0
  1  2  1  0  0  0  0
  2  3  1  0  0  0  0
  2  4  4  0  0  0  0
  4  5  1  0  0  0  0
  5  6  2  0  0  0  0
  6  7  1  0  0  0  0
  7  8  4  0  0  0  0
  8  9  4  0  0  0  0
  9 10  4  0  0  0  0
 10 11  2  0  0  0  0
 11 12  4  0  0  0  0
 12 13  4  0  0  0  0
 12 14  4  0  0  0  0
  9 15  1  0  0  0  0
 14 15  4  0  0  0  0
 15 16  1  0  0  0  0
  7 17  1  0  0  0  0
 16 17  1  0  0  0  0
  4 18  4  0  0  0  0
 17 18  4  0  0  0  0
  1 19  1  0  0  0  0
  1 20  1  0  0  0  0
  1 21  1  0  0  0  0
  3 22  1  0  0  0  0
  3 23  1  0  0  0  0
  3 24  1  0  0  0  0
  5 25  1  0  0  0  0
  6 26  1  0  0  0  0
 10 27  1  0  0  0  0
 11 28  1  0  0  0  0
 13 29  1  0  0  0  0
 13 30  1  0  0  0  0
 14 31  1  0  0  0  0
 18 32  1  0  0  0  0
M  CHG  1   1   1
M  END
