 xtb: 6.7.1pre (5071a88)
          09012620283D

 88125  0     0  0            999 V2000
   -1.9419    2.1836   10.7916 O   0  0  0  0  0  0  0  0  0  0  0  0
   -1.5846    1.3790    9.9340 C   0  0  0  0  0  0  0  0  0  0  0  0
   -0.1440    1.1346    9.6906 C   0  0  0  0  0  0  0  0  0  0  0  0
    0.7535    1.8361   10.4750 O   0  0  0  0  0  0  0  0  0  0  0  0
    0.2067    0.2442    8.7442 C   0  0  0  0  0  0  0  0  0  0  0  0
    1.6120   -0.0948    8.4268 C   0  0  0  0  0  0  0  0  0  0  0  0
    2.5916    0.9029    8.2556 C   0  0  0  0  0  0  0  0  0  0  0  0
    3.9006    0.5485    7.9367 C   0  0  0  0  0  0  0  0  0  0  0  0
    4.8851    1.4834    7.7723 O   0  0  0  0  0  0  0  0  0  0  0  0
    4.2439   -0.7867    7.7727 C   0  0  0  0  0  0  0  0  0  0  0  0
    5.5262   -1.1436    7.4556 O   0  0  0  0  0  0  0  0  0  0  0  0
    3.2853   -1.7762    7.9284 C   0  0  0  0  0  0  0  0  0  0  0  0
    3.6231   -3.0884    7.7643 O   0  0  0  0  0  0  0  0  0  0  0  0
    1.9755   -1.4432    8.2515 C   0  0  0  0  0  0  0  0  0  0  0  0
   -0.7069   -0.4714    7.9788 O   0  0  0  0  0  0  0  0  0  0  0  0
   -2.0484   -0.2633    8.1765 C   0  0  0  0  0  0  0  0  0  0  0  0
   -2.9252   -0.9999    7.3779 C   0  0  0  0  0  0  0  0  0  0  0  0
   -4.2978   -0.8266    7.5374 C   0  0  0  0  0  0  0  0  0  0  0  0
   -5.1924   -1.5235    6.7804 O   0  0  0  0  0  0  0  0  0  0  0  0
   -4.8038    0.0668    8.4780 C   0  0  0  0  0  0  0  0  0  0  0  0
   -3.9246    0.7976    9.2721 C   0  0  0  0  0  0  0  0  0  0  0  0
   -4.4776    1.6595   10.1795 O   0  0  0  0  0  0  0  0  0  0  0  0
   -2.5451    0.6317    9.1205 C   0  0  0  0  0  0  0  0  0  0  0  0
    0.2003    2.3580   11.0947 H   0  0  0  0  0  0  0  0  0  0  0  0
    2.3228    1.9490    8.3717 H   0  0  0  0  0  0  0  0  0  0  0  0
    4.5068    2.3587    7.9682 H   0  0  0  0  0  0  0  0  0  0  0  0
    6.0050   -0.2907    7.4028 H   0  0  0  0  0  0  0  0  0  0  0  0
    4.5786   -3.0710    7.5523 H   0  0  0  0  0  0  0  0  0  0  0  0
    1.2453   -2.2396    8.3705 H   0  0  0  0  0  0  0  0  0  0  0  0
   -2.5269   -1.6954    6.6455 H   0  0  0  0  0  0  0  0  0  0  0  0
   -4.7122   -2.1133    6.1757 H   0  0  0  0  0  0  0  0  0  0  0  0
   -5.8771    0.1919    8.5919 H   0  0  0  0  0  0  0  0  0  0  0  0
   -3.7533    2.1022   10.6740 H   0  0  0  0  0  0  0  0  0  0  0  0
   -4.7806   -2.6045    0.3173 B   0  0  0  0  0  0  0  0  0  0  0  0
   -4.5695   -1.3567   -0.6480 B   0  0  0  0  0  0  0  0  0  0  0  0
   -4.4639   -0.2474   -1.8829 B   0  0  0  0  0  0  0  0  0  0  0  0
   -3.3965   -2.6620   -0.5028 B   0  0  0  0  0  0  0  0  0  0  0  0
   -3.0380    0.1776   -1.4048 B   0  0  0  0  0  0  0  0  0  0  0  0
   -4.3909    0.3426   -0.1924 B   0  0  0  0  0  0  0  0  0  0  0  0
   -5.0310    1.4031    0.8192 B   0  0  0  0  0  0  0  0  0  0  0  0
   -4.6201    2.9864    0.9976 B   0  0  0  0  0  0  0  0  0  0  0  0
   -2.8089    0.5128    0.1995 B   0  0  0  0  0  0  0  0  0  0  0  0
   -3.2186    3.2275    1.7932 B   0  0  0  0  0  0  0  0  0  0  0  0
   -2.1611   -3.7758   -0.5843 B   0  0  0  0  0  0  0  0  0  0  0  0
   -1.8769   -2.2481   -0.9334 B   0  0  0  0  0  0  0  0  0  0  0  0
   -1.6972   -0.6133   -0.8358 B   0  0  0  0  0  0  0  0  0  0  0  0
   -0.5844   -3.2190   -0.8350 B   0  0  0  0  0  0  0  0  0  0  0  0
   -0.2198   -0.1484   -0.3118 B   0  0  0  0  0  0  0  0  0  0  0  0
   -1.3950    0.0358    0.8521 B   0  0  0  0  0  0  0  0  0  0  0  0
   -1.7757    1.6621    0.7592 B   0  0  0  0  0  0  0  0  0  0  0  0
   -1.8975    3.2370    0.8826 B   0  0  0  0  0  0  0  0  0  0  0  0
   -0.2153    1.0372    1.0697 B   0  0  0  0  0  0  0  0  0  0  0  0
   -0.7521    4.3480    0.5584 B   0  0  0  0  0  0  0  0  0  0  0  0
    0.8265   -4.1129   -0.7400 B   0  0  0  0  0  0  0  0  0  0  0  0
    0.9251   -2.5054   -0.7497 B   0  0  0  0  0  0  0  0  0  0  0  0
    1.2144   -0.9490   -0.5870 B   0  0  0  0  0  0  0  0  0  0  0  0
    2.2007   -3.4026   -0.1682 B   0  0  0  0  0  0  0  0  0  0  0  0
    2.6220   -0.1957   -0.2930 B   0  0  0  0  0  0  0  0  0  0  0  0
    1.2341    0.5516    0.1426 B   0  0  0  0  0  0  0  0  0  0  0  0
    1.1248    2.0009    1.0430 B   0  0  0  0  0  0  0  0  0  0  0  0
    0.5366    3.4372    0.6180 B   0  0  0  0  0  0  0  0  0  0  0  0
    2.4580    1.6726    0.0875 B   0  0  0  0  0  0  0  0  0  0  0  0
    1.2136    3.0171   -0.8530 B   0  0  0  0  0  0  0  0  0  0  0  0
    3.2202   -3.8508    1.1044 B   0  0  0  0  0  0  0  0  0  0  0  0
    3.6240   -2.6535    0.0637 B   0  0  0  0  0  0  0  0  0  0  0  0
    4.0250   -1.1219   -0.2366 B   0  0  0  0  0  0  0  0  0  0  0  0
    4.4174   -2.8355    1.4203 B   0  0  0  0  0  0  0  0  0  0  0  0
    5.3636   -0.2419   -0.6898 B   0  0  0  0  0  0  0  0  0  0  0  0
    4.1041    0.5310   -0.0135 B   0  0  0  0  0  0  0  0  0  0  0  0
    4.0181    2.3218   -0.0338 B   0  0  0  0  0  0  0  0  0  0  0  0
    2.8218    3.0968   -0.9129 B   0  0  0  0  0  0  0  0  0  0  0  0
    5.4220    1.4583   -0.1853 B   0  0  0  0  0  0  0  0  0  0  0  0
    4.2961    3.5501   -1.0140 B   0  0  0  0  0  0  0  0  0  0  0  0
   -5.1687   -3.0949    1.3107 H   0  0  0  0  0  0  0  0  0  0  0  0
   -5.7161   -2.0764   -0.3935 H   0  0  0  0  0  0  0  0  0  0  0  0
   -5.2640   -0.1207   -2.7417 H   0  0  0  0  0  0  0  0  0  0  0  0
   -5.7711    1.0074    1.6646 H   0  0  0  0  0  0  0  0  0  0  0  0
   -5.3645    3.8431    0.6720 H   0  0  0  0  0  0  0  0  0  0  0  0
   -3.2343    3.2250    2.9757 H   0  0  0  0  0  0  0  0  0  0  0  0
   -2.3593   -4.9262   -0.4732 H   0  0  0  0  0  0  0  0  0  0  0  0
   -0.8965    5.4755    0.2443 H   0  0  0  0  0  0  0  0  0  0  0  0
    0.8223   -5.2498   -1.0233 H   0  0  0  0  0  0  0  0  0  0  0  0
    0.5537    2.6943   -1.7837 H   0  0  0  0  0  0  0  0  0  0  0  0
    2.9703   -4.8176    1.7172 H   0  0  0  0  0  0  0  0  0  0  0  0
    5.2631   -2.5125    2.1565 H   0  0  0  0  0  0  0  0  0  0  0  0
    6.3848   -0.6467   -1.0956 H   0  0  0  0  0  0  0  0  0  0  0  0
    6.5032    1.8382    0.0650 H   0  0  0  0  0  0  0  0  0  0  0  0
    5.1389    4.2524   -1.4154 H   0  0  0  0  0  0  0  0  0  0  0  0
  1  2  2  0  0  0  0
  2  3  1  0  0  0  0
  3  4  1  0  0  0  0
  3  5  2  0  0  0  0
  5  6  1  0  0  0  0
  6  7  4  0  0  0  0
  7  8  4  0  0  0  0
  8  9  1  0  0  0  0
  8 10  4  0  0  0  0
 10 11  1  0  0  0  0
 10 12  4  0  0  0  0
 12 13  1  0  0  0  0
  6 14  4  0  0  0  0
 12 14  4  0  0  0  0
  5 15  1  0  0  0  0
 15 16  1  0  0  0  0
 16 17  4  0  0  0  0
 17 18  4  0  0  0  0
 18 19  1  0  0  0  0
 18 20  4  0  0  0  0
 20 21  4  0  0  0  0
 21 22  1  0  0  0  0
  2 23  1  0  0  0  0
 16 23  4  0  0  0  0
 21 23  4  0  0  0  0
  4 24  1  0  0  0  0
  7 25  1  0  0  0  0
  9 26  1  0  0  0  0
 11 27  1  0  0  0  0
 13 28  1  0  0  0  0
 14 29  1  0  0  0  0
 17 30  1  0  0  0  0
 19 31  1  0  0  0  0
 20 32  1  0  0  0  0
 22 33  1  0  0  0  0
 34 35  1  0  0  0  0
 35 36  1  0  0  0  0
 34 37  1  0  0  0  0
 35 37  1  0  0  0  0
 36 38  1  0  0  0  0
 35 39  1  0  0  0  0
 36 39  1  0  0  0  0
 38 39  1  0  0  0  0
 39 40  1  0  0  0  0
 40 41  1  0  0  0  0
 38 42  1  0  0  0  0
 39 42  1  0  0  0  0
 41 43  1  0  0  0  0
 37 44  1  0  0  0  0
 37 45  1  0  0  0  0
 44 45  1  0  0  0  0
 38 46  1  0  0  0  0
 42 46  1  0  0  0  0
 45 46  1  0  0  0  0
 44 47  1  0  0  0  0
 45 47  1  0  0  0  0
 46 48  1  0  0  0  0
 42 49  1  0  0  0  0
 46 49  1  0  0  0  0
 48 49  1  0  0  0  0
 42 50  1  0  0  0  0
 49 50  1  0  0  0  0
 43 51  1  0  0  0  0
 50 51  1  0  0  0  0
 48 52  1  0  0  0  0
 49 52  1  0  0  0  0
 50 52  1  0  0  0  0
 51 53  1  0  0  0  0
 47 54  1  0  0  0  0
 47 55  1  0  0  0  0
 54 55  1  0  0  0  0
 48 56  1  0  0  0  0
 55 56  1  0  0  0  0
 54 57  1  0  0  0  0
 55 57  1  0  0  0  0
 56 58  1  0  0  0  0
 48 59  1  0  0  0  0
 52 59  1  0  0  0  0
 56 59  1  0  0  0  0
 58 59  1  0  0  0  0
 52 60  1  0  0  0  0
 59 60  1  0  0  0  0
 53 61  1  0  0  0  0
 60 61  1  0  0  0  0
 58 62  1  0  0  0  0
 59 62  1  0  0  0  0
 60 62  1  0  0  0  0
 61 63  1  0  0  0  0
 57 64  1  0  0  0  0
 57 65  1  0  0  0  0
 64 65  1  0  0  0  0
 58 66  1  0  0  0  0
 65 66  1  0  0  0  0
 64 67  1  0  0  0  0
 65 67  1  0  0  0  0
 66 68  1  0  0  0  0
 58 69  1  0  0  0  0
 66 69  1  0  0  0  0
 68 69  1  0  0  0  0
 62 70  1  0  0  0  0
 69 70  1  0  0  0  0
 62 71  1  0  0  0  0
 63 71  1  0  0  0  0
 70 71  1  0  0  0  0
 68 72  1  0  0  0  0
 69 72  1  0  0  0  0
 70 72  1  0  0  0  0
 70 73  1  0  0  0  0
 71 73  1  0  0  0  0
 34 74  1  0  0  0  0
 34 75  1  0  0  0  0
 35 75  1  0  0  0  0
 36 76  1  0  0  0  0
 40 77  1  0  0  0  0
 41 78  1  0  0  0  0
 43 79  1  0  0  0  0
 44 80  1  0  0  0  0
 53 81  1  0  0  0  0
 54 82  1  0  0  0  0
 63 83  1  0  0  0  0
 64 84  1  0  0  0  0
 67 85  1  0  0  0  0
 68 86  1  0  0  0  0
 72 87  1  0  0  0  0
 73 88  1  0  0  0  0
M  END
