 xtb: 6.7.1pre (5071a88)
          08312621153D

 93148  0     0  0            999 V2000
   -1.9419    2.1836    7.8159 O   0  0  0  0  0  0  0  0  0  0  0  0
   -1.5846    1.3790    6.9583 C   0  0  0  0  0  0  0  0  0  0  0  0
   -0.1440    1.1346    6.7150 C   0  0  0  0  0  0  0  0  0  0  0  0
    0.7535    1.8361    7.4993 O   0  0  0  0  0  0  0  0  0  0  0  0
    0.2067    0.2442    5.7685 C   0  0  0  0  0  0  0  0  0  0  0  0
    1.6120   -0.0948    5.4511 C   0  0  0  0  0  0  0  0  0  0  0  0
    2.5916    0.9029    5.2799 C   0  0  0  0  0  0  0  0  0  0  0  0
    3.9006    0.5485    4.9610 C   0  0  0  0  0  0  0  0  0  0  0  0
    4.8851    1.4834    4.7966 O   0  0  0  0  0  0  0  0  0  0  0  0
    4.2439   -0.7867    4.7970 C   0  0  0  0  0  0  0  0  0  0  0  0
    5.5262   -1.1436    4.4799 O   0  0  0  0  0  0  0  0  0  0  0  0
    3.2853   -1.7762    4.9528 C   0  0  0  0  0  0  0  0  0  0  0  0
    3.6231   -3.0884    4.7886 O   0  0  0  0  0  0  0  0  0  0  0  0
    1.9755   -1.4432    5.2758 C   0  0  0  0  0  0  0  0  0  0  0  0
   -0.7069   -0.4714    5.0031 O   0  0  0  0  0  0  0  0  0  0  0  0
   -2.0484   -0.2633    5.2008 C   0  0  0  0  0  0  0  0  0  0  0  0
   -2.9252   -0.9999    4.4022 C   0  0  0  0  0  0  0  0  0  0  0  0
   -4.2978   -0.8266    4.5618 C   0  0  0  0  0  0  0  0  0  0  0  0
   -5.1924   -1.5235    3.8048 O   0  0  0  0  0  0  0  0  0  0  0  0
   -4.8038    0.0668    5.5023 C   0  0  0  0  0  0  0  0  0  0  0  0
   -3.9246    0.7976    6.2964 C   0  0  0  0  0  0  0  0  0  0  0  0
   -4.4776    1.6595    7.2038 O   0  0  0  0  0  0  0  0  0  0  0  0
   -2.5451    0.6317    6.1448 C   0  0  0  0  0  0  0  0  0  0  0  0
    0.2003    2.3580    8.1190 H   0  0  0  0  0  0  0  0  0  0  0  0
    2.3228    1.9490    5.3960 H   0  0  0  0  0  0  0  0  0  0  0  0
    4.5068    2.3587    4.9925 H   0  0  0  0  0  0  0  0  0  0  0  0
    6.0050   -0.2907    4.4271 H   0  0  0  0  0  0  0  0  0  0  0  0
    4.5786   -3.0710    4.5766 H   0  0  0  0  0  0  0  0  0  0  0  0
    1.2453   -2.2396    5.3948 H   0  0  0  0  0  0  0  0  0  0  0  0
   -2.5269   -1.6954    3.6698 H   0  0  0  0  0  0  0  0  0  0  0  0
   -4.7122   -2.1133    3.2000 H   0  0  0  0  0  0  0  0  0  0  0  0
   -5.8771    0.1919    5.6162 H   0  0  0  0  0  0  0  0  0  0  0  0
   -3.7533    2.1022    7.6983 H   0  0  0  0  0  0  0  0  0  0  0  0
   -6.3511   -2.8545   -0.3396 B   0  0  0  0  0  0  0  0  0  0  0  0
   -3.8632   -3.4276    0.8712 B   0  0  0  0  0  0  0  0  0  0  0  0
   -1.0552   -4.1651    1.9793 B   0  0  0  0  0  0  0  0  0  0  0  0
    1.6853   -4.2318    1.3549 B   0  0  0  0  0  0  0  0  0  0  0  0
    2.9703   -3.6923    0.6219 B   0  0  0  0  0  0  0  0  0  0  0  0
    5.9076   -3.8486   -0.3800 B   0  0  0  0  0  0  0  0  0  0  0  0
   -4.7612   -2.3307   -0.4078 B   0  0  0  0  0  0  0  0  0  0  0  0
   -2.6199   -2.2111    0.8442 B   0  0  0  0  0  0  0  0  0  0  0  0
   -1.2327   -2.3911    1.7792 B   0  0  0  0  0  0  0  0  0  0  0  0
    0.2814   -3.1446    1.2586 B   0  0  0  0  0  0  0  0  0  0  0  0
    3.1280   -2.1353    0.0337 B   0  0  0  0  0  0  0  0  0  0  0  0
    5.2824   -2.5807   -1.1427 B   0  0  0  0  0  0  0  0  0  0  0  0
   -4.3827   -1.0545   -1.3461 B   0  0  0  0  0  0  0  0  0  0  0  0
   -3.1924   -1.2685   -0.2398 B   0  0  0  0  0  0  0  0  0  0  0  0
   -0.7667   -0.9151    2.1471 B   0  0  0  0  0  0  0  0  0  0  0  0
    0.4341   -1.5098    0.8825 B   0  0  0  0  0  0  0  0  0  0  0  0
    4.2603   -1.2719   -0.6057 B   0  0  0  0  0  0  0  0  0  0  0  0
    6.8452   -2.4756   -0.8065 B   0  0  0  0  0  0  0  0  0  0  0  0
   -5.0072   -0.6437   -2.8496 B   0  0  0  0  0  0  0  0  0  0  0  0
   -3.1952    0.1543   -0.9257 B   0  0  0  0  0  0  0  0  0  0  0  0
   -0.9469    0.6233    2.2104 B   0  0  0  0  0  0  0  0  0  0  0  0
    0.0016   -0.0204    0.9084 B   0  0  0  0  0  0  0  0  0  0  0  0
    4.8754    0.2242   -0.5476 B   0  0  0  0  0  0  0  0  0  0  0  0
    5.8786   -1.0664   -1.1306 B   0  0  0  0  0  0  0  0  0  0  0  0
   -5.7672    0.8535   -2.9176 B   0  0  0  0  0  0  0  0  0  0  0  0
   -2.8971    1.6282   -0.7083 B   0  0  0  0  0  0  0  0  0  0  0  0
   -1.2399    2.1332    2.0889 B   0  0  0  0  0  0  0  0  0  0  0  0
    0.1883    1.5499    1.0540 B   0  0  0  0  0  0  0  0  0  0  0  0
    4.2581    1.5841    0.0647 B   0  0  0  0  0  0  0  0  0  0  0  0
    6.3075    0.4397   -1.6258 B   0  0  0  0  0  0  0  0  0  0  0  0
   -5.7341    1.7554   -1.4938 B   0  0  0  0  0  0  0  0  0  0  0  0
   -3.3469    2.9740   -0.1746 B   0  0  0  0  0  0  0  0  0  0  0  0
   -1.6646    3.6160    1.7973 B   0  0  0  0  0  0  0  0  0  0  0  0
   -0.0590    3.1640    1.3235 B   0  0  0  0  0  0  0  0  0  0  0  0
    2.9656    2.2589    0.6844 B   0  0  0  0  0  0  0  0  0  0  0  0
    5.7919    1.6725   -0.6985 B   0  0  0  0  0  0  0  0  0  0  0  0
   -6.6389    2.8000   -0.8422 B   0  0  0  0  0  0  0  0  0  0  0  0
   -4.4746    3.8873    0.5879 B   0  0  0  0  0  0  0  0  0  0  0  0
   -1.7771    5.1752    1.2154 B   0  0  0  0  0  0  0  0  0  0  0  0
    1.1754    4.4066    1.3290 B   0  0  0  0  0  0  0  0  0  0  0  0
    2.5938    3.9229    0.8796 B   0  0  0  0  0  0  0  0  0  0  0  0
    5.3509    2.9860   -0.0541 B   0  0  0  0  0  0  0  0  0  0  0  0
   -5.3190   -3.6348    0.4165 B   0  0  0  0  0  0  0  0  0  0  0  0
   -2.4877   -3.6329    1.6055 B   0  0  0  0  0  0  0  0  0  0  0  0
    0.3596   -4.7213    1.9063 B   0  0  0  0  0  0  0  0  0  0  0  0
    1.7215   -2.4162    0.7345 B   0  0  0  0  0  0  0  0  0  0  0  0
    4.3387   -3.4800   -0.0729 B   0  0  0  0  0  0  0  0  0  0  0  0
   -5.0953    2.8472   -0.3735 B   0  0  0  0  0  0  0  0  0  0  0  0
   -3.0345    4.3187    0.9326 B   0  0  0  0  0  0  0  0  0  0  0  0
   -0.2869    4.8951    1.4426 B   0  0  0  0  0  0  0  0  0  0  0  0
    1.4616    2.5482    0.9924 B   0  0  0  0  0  0  0  0  0  0  0  0
    4.0784    3.6198    0.5106 B   0  0  0  0  0  0  0  0  0  0  0  0
   -4.5957    0.5913   -1.8415 B   0  0  0  0  0  0  0  0  0  0  0  0
   -7.3684   -2.5027   -0.8103 H   0  0  0  0  0  0  0  0  0  0  0  0
   -4.9591   -1.3760   -3.7739 H   0  0  0  0  0  0  0  0  0  0  0  0
   -6.3246    1.2608   -3.8715 H   0  0  0  0  0  0  0  0  0  0  0  0
   -7.6134    3.4017   -0.5976 H   0  0  0  0  0  0  0  0  0  0  0  0
    6.3612   -4.9354   -0.3602 H   0  0  0  0  0  0  0  0  0  0  0  0
    8.0163   -2.4682   -0.9061 H   0  0  0  0  0  0  0  0  0  0  0  0
    6.9392    0.6146   -2.6128 H   0  0  0  0  0  0  0  0  0  0  0  0
  1  2  2  0  0  0  0
  2  3  1  0  0  0  0
  3  4  1  0  0  0  0
  3  5  2  0  0  0  0
  5  6  1  0  0  0  0
  6  7  4  0  0  0  0
  7  8  4  0  0  0  0
  8  9  1  0  0  0  0
  8 10  4  0  0  0  0
 10 11  1  0  0  0  0
 10 12  4  0  0  0  0
 12 13  1  0  0  0  0
  6 14  4  0  0  0  0
 12 14  4  0  0  0  0
  5 15  1  0  0  0  0
 15 16  1  0  0  0  0
 16 17  4  0  0  0  0
 17 18  4  0  0  0  0
 18 19  1  0  0  0  0
 18 20  4  0  0  0  0
 20 21  4  0  0  0  0
 21 22  1  0  0  0  0
  2 23  1  0  0  0  0
 16 23  4  0  0  0  0
 21 23  4  0  0  0  0
  4 24  1  0  0  0  0
  7 25  1  0  0  0  0
  9 26  1  0  0  0  0
 11 27  1  0  0  0  0
 13 28  1  0  0  0  0
 14 29  1  0  0  0  0
 17 30  1  0  0  0  0
 19 31  1  0  0  0  0
 20 32  1  0  0  0  0
 22 33  1  0  0  0  0
 37 38  1  0  0  0  0
 34 40  1  0  0  0  0
 35 40  1  0  0  0  0
 35 41  1  0  0  0  0
 36 42  1  0  0  0  0
 41 42  1  0  0  0  0
 36 43  1  0  0  0  0
 37 43  1  0  0  0  0
 42 43  1  0  0  0  0
 38 44  1  0  0  0  0
 39 45  1  0  0  0  0
 40 46  1  0  0  0  0
 40 47  1  0  0  0  0
 41 47  1  0  0  0  0
 46 47  1  0  0  0  0
 42 48  1  0  0  0  0
 43 49  1  0  0  0  0
 48 49  1  0  0  0  0
 44 50  1  0  0  0  0
 45 50  1  0  0  0  0
 39 51  1  0  0  0  0
 45 51  1  0  0  0  0
 46 52  1  0  0  0  0
 46 53  1  0  0  0  0
 47 53  1  0  0  0  0
 48 54  1  0  0  0  0
 48 55  1  0  0  0  0
 49 55  1  0  0  0  0
 54 55  1  0  0  0  0
 50 56  1  0  0  0  0
 45 57  1  0  0  0  0
 50 57  1  0  0  0  0
 51 57  1  0  0  0  0
 56 57  1  0  0  0  0
 52 58  1  0  0  0  0
 53 59  1  0  0  0  0
 54 60  1  0  0  0  0
 54 61  1  0  0  0  0
 55 61  1  0  0  0  0
 60 61  1  0  0  0  0
 56 62  1  0  0  0  0
 56 63  1  0  0  0  0
 57 63  1  0  0  0  0
 58 64  1  0  0  0  0
 59 65  2  0  0  0  0
 60 66  1  0  0  0  0
 60 67  1  0  0  0  0
 61 67  1  0  0  0  0
 66 67  1  0  0  0  0
 62 68  1  0  0  0  0
 56 69  1  0  0  0  0
 62 69  1  0  0  0  0
 63 69  1  0  0  0  0
 64 70  1  0  0  0  0
 65 71  1  0  0  0  0
 66 72  1  0  0  0  0
 67 73  1  0  0  0  0
 68 74  1  0  0  0  0
 73 74  1  0  0  0  0
 62 75  1  0  0  0  0
 69 75  1  0  0  0  0
 34 76  2  0  0  0  0
 35 76  1  0  0  0  0
 40 76  1  0  0  0  0
 35 77  1  0  0  0  0
 36 77  1  0  0  0  0
 41 77  1  0  0  0  0
 42 77  1  0  0  0  0
 36 78  1  0  0  0  0
 37 78  1  0  0  0  0
 43 78  1  0  0  0  0
 37 79  1  0  0  0  0
 38 79  1  0  0  0  0
 43 79  1  0  0  0  0
 44 79  1  0  0  0  0
 49 79  1  0  0  0  0
 38 80  1  0  0  0  0
 39 80  1  0  0  0  0
 44 80  1  0  0  0  0
 45 80  1  0  0  0  0
 64 81  1  0  0  0  0
 65 81  1  0  0  0  0
 70 81  1  0  0  0  0
 71 81  1  0  0  0  0
 65 82  1  0  0  0  0
 66 82  1  0  0  0  0
 71 82  1  0  0  0  0
 72 82  1  0  0  0  0
 66 83  1  0  0  0  0
 67 83  1  0  0  0  0
 72 83  1  0  0  0  0
 73 83  1  0  0  0  0
 61 84  1  0  0  0  0
 67 84  1  0  0  0  0
 68 84  1  0  0  0  0
 73 84  1  0  0  0  0
 74 84  1  0  0  0  0
 62 85  1  0  0  0  0
 68 85  1  0  0  0  0
 74 85  1  0  0  0  0
 75 85  1  0  0  0  0
 46 86  1  0  0  0  0
 52 86  1  0  0  0  0
 53 86  1  0  0  0  0
 58 86  1  0  0  0  0
 64 86  1  0  0  0  0
 34 87  1  0  0  0  0
 52 88  1  0  0  0  0
 58 89  1  0  0  0  0
 70 90  1  0  0  0  0
 39 91  1  0  0  0  0
 51 92  1  0  0  0  0
 63 93  1  0  0  0  0
M  END
