 xtb: 6.7.1pre (5071a88)
          08312620223D

 93123  0     0  0            999 V2000
   -1.9419    2.1836    5.6608 O   0  0  0  0  0  0  0  0  0  0  0  0
   -1.5846    1.3790    4.8032 C   0  0  0  0  0  0  0  0  0  0  0  0
   -0.1440    1.1346    4.5599 C   0  0  0  0  0  0  0  0  0  0  0  0
    0.7535    1.8361    5.3442 O   0  0  0  0  0  0  0  0  0  0  0  0
    0.2067    0.2442    3.6134 C   0  0  0  0  0  0  0  0  0  0  0  0
    1.6120   -0.0948    3.2960 C   0  0  0  0  0  0  0  0  0  0  0  0
    2.5916    0.9029    3.1248 C   0  0  0  0  0  0  0  0  0  0  0  0
    3.9006    0.5485    2.8059 C   0  0  0  0  0  0  0  0  0  0  0  0
    4.8851    1.4834    2.6415 O   0  0  0  0  0  0  0  0  0  0  0  0
    4.2439   -0.7867    2.6419 C   0  0  0  0  0  0  0  0  0  0  0  0
    5.5262   -1.1436    2.3248 O   0  0  0  0  0  0  0  0  0  0  0  0
    3.2853   -1.7762    2.7977 C   0  0  0  0  0  0  0  0  0  0  0  0
    3.6231   -3.0884    2.6335 O   0  0  0  0  0  0  0  0  0  0  0  0
    1.9755   -1.4432    3.1207 C   0  0  0  0  0  0  0  0  0  0  0  0
   -0.7069   -0.4714    2.8480 O   0  0  0  0  0  0  0  0  0  0  0  0
   -2.0484   -0.2633    3.0457 C   0  0  0  0  0  0  0  0  0  0  0  0
   -2.9252   -0.9999    2.2472 C   0  0  0  0  0  0  0  0  0  0  0  0
   -4.2978   -0.8266    2.4067 C   0  0  0  0  0  0  0  0  0  0  0  0
   -5.1924   -1.5235    1.6497 O   0  0  0  0  0  0  0  0  0  0  0  0
   -4.8038    0.0668    3.3473 C   0  0  0  0  0  0  0  0  0  0  0  0
   -3.9246    0.7976    4.1413 C   0  0  0  0  0  0  0  0  0  0  0  0
   -4.4776    1.6595    5.0487 O   0  0  0  0  0  0  0  0  0  0  0  0
   -2.5451    0.6317    3.9897 C   0  0  0  0  0  0  0  0  0  0  0  0
    0.2003    2.3580    5.9640 H   0  0  0  0  0  0  0  0  0  0  0  0
    2.3228    1.9490    3.2409 H   0  0  0  0  0  0  0  0  0  0  0  0
    4.5068    2.3587    2.8374 H   0  0  0  0  0  0  0  0  0  0  0  0
    6.0050   -0.2907    2.2720 H   0  0  0  0  0  0  0  0  0  0  0  0
    4.5786   -3.0710    2.4215 H   0  0  0  0  0  0  0  0  0  0  0  0
    1.2453   -2.2396    3.2397 H   0  0  0  0  0  0  0  0  0  0  0  0
   -2.5269   -1.6954    1.5147 H   0  0  0  0  0  0  0  0  0  0  0  0
   -4.7122   -2.1133    1.0449 H   0  0  0  0  0  0  0  0  0  0  0  0
   -5.8771    0.1919    3.4611 H   0  0  0  0  0  0  0  0  0  0  0  0
   -3.7533    2.1022    5.5433 H   0  0  0  0  0  0  0  0  0  0  0  0
   -7.5000   -4.5000    0.0000 B   0  0  0  0  0  0  0  0  0  0  0  0
   -4.5000   -4.5000    0.0000 B   0  0  0  0  0  0  0  0  0  0  0  0
   -1.5000   -4.5000    0.0000 B   0  0  0  0  0  0  0  0  0  0  0  0
    1.5000   -4.5000    0.0000 B   0  0  0  0  0  0  0  0  0  0  0  0
    4.5000   -4.5000    0.0000 B   0  0  0  0  0  0  0  0  0  0  0  0
    7.5000   -4.5000    0.0000 B   0  0  0  0  0  0  0  0  0  0  0  0
   -7.5000   -3.0000    0.0000 B   0  0  0  0  0  0  0  0  0  0  0  0
   -4.5000   -3.0000    0.0000 B   0  0  0  0  0  0  0  0  0  0  0  0
   -1.5000   -3.0000    0.0000 B   0  0  0  0  0  0  0  0  0  0  0  0
    1.5000   -3.0000    0.0000 B   0  0  0  0  0  0  0  0  0  0  0  0
    4.5000   -3.0000    0.0000 B   0  0  0  0  0  0  0  0  0  0  0  0
    7.5000   -3.0000    0.0000 B   0  0  0  0  0  0  0  0  0  0  0  0
   -7.5000   -1.5000    0.0000 B   0  0  0  0  0  0  0  0  0  0  0  0
   -4.5000   -1.5000    0.0000 B   0  0  0  0  0  0  0  0  0  0  0  0
   -1.5000   -1.5000    0.0000 B   0  0  0  0  0  0  0  0  0  0  0  0
    1.5000   -1.5000    0.0000 B   0  0  0  0  0  0  0  0  0  0  0  0
    4.5000   -1.5000    0.0000 B   0  0  0  0  0  0  0  0  0  0  0  0
    7.5000   -1.5000    0.0000 B   0  0  0  0  0  0  0  0  0  0  0  0
   -7.5000    0.0000    0.0000 B   0  0  0  0  0  0  0  0  0  0  0  0
   -4.5000    0.0000    0.0000 B   0  0  0  0  0  0  0  0  0  0  0  0
   -1.5000    0.0000    0.0000 B   0  0  0  0  0  0  0  0  0  0  0  0
    1.5000    0.0000    0.0000 B   0  0  0  0  0  0  0  0  0  0  0  0
    4.5000    0.0000    0.0000 B   0  0  0  0  0  0  0  0  0  0  0  0
    7.5000    0.0000    0.0000 B   0  0  0  0  0  0  0  0  0  0  0  0
   -7.5000    1.5000    0.0000 B   0  0  0  0  0  0  0  0  0  0  0  0
   -4.5000    1.5000    0.0000 B   0  0  0  0  0  0  0  0  0  0  0  0
   -1.5000    1.5000    0.0000 B   0  0  0  0  0  0  0  0  0  0  0  0
    1.5000    1.5000    0.0000 B   0  0  0  0  0  0  0  0  0  0  0  0
    4.5000    1.5000    0.0000 B   0  0  0  0  0  0  0  0  0  0  0  0
    7.5000    1.5000    0.0000 B   0  0  0  0  0  0  0  0  0  0  0  0
   -7.5000    3.0000    0.0000 B   0  0  0  0  0  0  0  0  0  0  0  0
   -4.5000    3.0000    0.0000 B   0  0  0  0  0  0  0  0  0  0  0  0
   -1.5000    3.0000    0.0000 B   0  0  0  0  0  0  0  0  0  0  0  0
    1.5000    3.0000    0.0000 B   0  0  0  0  0  0  0  0  0  0  0  0
    4.5000    3.0000    0.0000 B   0  0  0  0  0  0  0  0  0  0  0  0
    7.5000    3.0000    0.0000 B   0  0  0  0  0  0  0  0  0  0  0  0
   -7.5000    4.5000    0.0000 B   0  0  0  0  0  0  0  0  0  0  0  0
   -4.5000    4.5000    0.0000 B   0  0  0  0  0  0  0  0  0  0  0  0
   -1.5000    4.5000    0.0000 B   0  0  0  0  0  0  0  0  0  0  0  0
    1.5000    4.5000    0.0000 B   0  0  0  0  0  0  0  0  0  0  0  0
    4.5000    4.5000    0.0000 B   0  0  0  0  0  0  0  0  0  0  0  0
    7.5000    4.5000    0.0000 B   0  0  0  0  0  0  0  0  0  0  0  0
   -6.0000   -3.7500    0.0000 B   0  0  0  0  0  0  0  0  0  0  0  0
   -3.0000   -3.7500    0.0000 B   0  0  0  0  0  0  0  0  0  0  0  0
    0.0000   -3.7500    0.0000 B   0  0  0  0  0  0  0  0  0  0  0  0
    3.0000   -3.7500    0.0000 B   0  0  0  0  0  0  0  0  0  0  0  0
    6.0000   -3.7500    0.0000 B   0  0  0  0  0  0  0  0  0  0  0  0
   -6.0000    3.7500    0.0000 B   0  0  0  0  0  0  0  0  0  0  0  0
   -3.0000    3.7500    0.0000 B   0  0  0  0  0  0  0  0  0  0  0  0
    0.0000    3.7500    0.0000 B   0  0  0  0  0  0  0  0  0  0  0  0
    3.0000    3.7500    0.0000 B   0  0  0  0  0  0  0  0  0  0  0  0
    6.0000    3.7500    0.0000 B   0  0  0  0  0  0  0  0  0  0  0  0
   -6.0000    0.0000    0.0000 B   0  0  0  0  0  0  0  0  0  0  0  0
   -8.6000   -4.5000    0.0000 H   0  0  0  0  0  0  0  0  0  0  0  0
   -8.6000   -1.5000    0.0000 H   0  0  0  0  0  0  0  0  0  0  0  0
   -8.6000    1.5000    0.0000 H   0  0  0  0  0  0  0  0  0  0  0  0
   -8.6000    4.5000    0.0000 H   0  0  0  0  0  0  0  0  0  0  0  0
    8.6000   -4.5000    0.0000 H   0  0  0  0  0  0  0  0  0  0  0  0
    8.6000   -1.5000    0.0000 H   0  0  0  0  0  0  0  0  0  0  0  0
    8.6000    1.5000    0.0000 H   0  0  0  0  0  0  0  0  0  0  0  0
  1  2  2  0  0  0  0
  2  3  1  0  0  0  0
  3  4  1  0  0  0  0
  3  5  2  0  0  0  0
  5  6  1  0  0  0  0
  6  7  4  0  0  0  0
  7  8  4  0  0  0  0
  8  9  1  0  0  0  0
  8 10  4  0  0  0  0
 10 11  1  0  0  0  0
 10 12  4  0  0  0  0
 12 13  1  0  0  0  0
  6 14  4  0  0  0  0
 12 14  4  0  0  0  0
  5 15  1  0  0  0  0
 15 16  1  0  0  0  0
 16 17  4  0  0  0  0
 17 18  4  0  0  0  0
 18 19  1  0  0  0  0
 18 20  4  0  0  0  0
 20 21  4  0  0  0  0
 21 22  1  0  0  0  0
  2 23  1  0  0  0  0
 16 23  4  0  0  0  0
 21 23  4  0  0  0  0
  4 24  1  0  0  0  0
  7 25  1  0  0  0  0
  9 26  1  0  0  0  0
 11 27  1  0  0  0  0
 13 28  1  0  0  0  0
 14 29  1  0  0  0  0
 17 30  1  0  0  0  0
 19 31  1  0  0  0  0
 20 32  1  0  0  0  0
 22 33  1  0  0  0  0
 34 40  1  0  0  0  0
 35 41  1  0  0  0  0
 36 42  1  0  0  0  0
 37 43  1  0  0  0  0
 38 44  1  0  0  0  0
 39 45  1  0  0  0  0
 40 46  1  0  0  0  0
 41 47  1  0  0  0  0
 42 48  1  0  0  0  0
 43 49  1  0  0  0  0
 44 50  1  0  0  0  0
 45 51  1  0  0  0  0
 46 52  1  0  0  0  0
 47 53  1  0  0  0  0
 48 54  2  0  0  0  0
 49 55  2  0  0  0  0
 50 56  2  0  0  0  0
 51 57  1  0  0  0  0
 52 58  1  0  0  0  0
 53 59  2  0  0  0  0
 54 60  2  0  0  0  0
 55 61  2  0  0  0  0
 56 62  2  0  0  0  0
 57 63  2  0  0  0  0
 58 64  1  0  0  0  0
 59 65  1  0  0  0  0
 60 66  1  0  0  0  0
 61 67  1  0  0  0  0
 62 68  1  0  0  0  0
 63 69  1  0  0  0  0
 64 70  1  0  0  0  0
 65 71  1  0  0  0  0
 66 72  1  0  0  0  0
 67 73  1  0  0  0  0
 68 74  1  0  0  0  0
 69 75  2  0  0  0  0
 34 76  1  0  0  0  0
 35 76  1  0  0  0  0
 40 76  1  0  0  0  0
 41 76  1  0  0  0  0
 35 77  1  0  0  0  0
 36 77  1  0  0  0  0
 41 77  1  0  0  0  0
 42 77  1  0  0  0  0
 36 78  1  0  0  0  0
 37 78  1  0  0  0  0
 42 78  1  0  0  0  0
 43 78  1  0  0  0  0
 37 79  1  0  0  0  0
 38 79  1  0  0  0  0
 43 79  1  0  0  0  0
 44 79  1  0  0  0  0
 38 80  1  0  0  0  0
 39 80  1  0  0  0  0
 44 80  1  0  0  0  0
 45 80  1  0  0  0  0
 64 81  1  0  0  0  0
 65 81  1  0  0  0  0
 70 81  1  0  0  0  0
 71 81  1  0  0  0  0
 65 82  1  0  0  0  0
 66 82  1  0  0  0  0
 71 82  1  0  0  0  0
 72 82  1  0  0  0  0
 66 83  1  0  0  0  0
 67 83  1  0  0  0  0
 72 83  1  0  0  0  0
 73 83  1  0  0  0  0
 67 84  1  0  0  0  0
 68 84  1  0  0  0  0
 73 84  1  0  0  0  0
 74 84  1  0  0  0  0
 68 85  1  0  0  0  0
 69 85  1  0  0  0  0
 74 85  1  0  0  0  0
 75 85  1  0  0  0  0
 46 86  1  0  0  0  0
 52 86  1  0  0  0  0
 53 86  1  0  0  0  0
 58 86  1  0  0  0  0
 59 86  1  0  0  0  0
 34 87  1  0  0  0  0
 46 88  1  0  0  0  0
 58 89  1  0  0  0  0
 70 90  1  0  0  0  0
 39 91  1  0  0  0  0
 51 92  1  0  0  0  0
 63 93  1  0  0  0  0
M  END
