 xtb: 6.7.1pre (5071a88)
          09012616343D

 93135  0     0  0            999 V2000
   -1.9419    2.1836    9.5644 O   0  0  0  0  0  0  0  0  0  0  0  0
   -1.5846    1.3790    8.7068 C   0  0  0  0  0  0  0  0  0  0  0  0
   -0.1440    1.1346    8.4634 C   0  0  0  0  0  0  0  0  0  0  0  0
    0.7535    1.8361    9.2478 O   0  0  0  0  0  0  0  0  0  0  0  0
    0.2067    0.2442    7.5170 C   0  0  0  0  0  0  0  0  0  0  0  0
    1.6120   -0.0948    7.1996 C   0  0  0  0  0  0  0  0  0  0  0  0
    2.5916    0.9029    7.0284 C   0  0  0  0  0  0  0  0  0  0  0  0
    3.9006    0.5485    6.7095 C   0  0  0  0  0  0  0  0  0  0  0  0
    4.8851    1.4834    6.5451 O   0  0  0  0  0  0  0  0  0  0  0  0
    4.2439   -0.7867    6.5455 C   0  0  0  0  0  0  0  0  0  0  0  0
    5.5262   -1.1436    6.2284 O   0  0  0  0  0  0  0  0  0  0  0  0
    3.2853   -1.7762    6.7012 C   0  0  0  0  0  0  0  0  0  0  0  0
    3.6231   -3.0884    6.5370 O   0  0  0  0  0  0  0  0  0  0  0  0
    1.9755   -1.4432    7.0242 C   0  0  0  0  0  0  0  0  0  0  0  0
   -0.7069   -0.4714    6.7516 O   0  0  0  0  0  0  0  0  0  0  0  0
   -2.0484   -0.2633    6.9492 C   0  0  0  0  0  0  0  0  0  0  0  0
   -2.9252   -0.9999    6.1507 C   0  0  0  0  0  0  0  0  0  0  0  0
   -4.2978   -0.8266    6.3102 C   0  0  0  0  0  0  0  0  0  0  0  0
   -5.1924   -1.5235    5.5532 O   0  0  0  0  0  0  0  0  0  0  0  0
   -4.8038    0.0668    7.2508 C   0  0  0  0  0  0  0  0  0  0  0  0
   -3.9246    0.7976    8.0449 C   0  0  0  0  0  0  0  0  0  0  0  0
   -4.4776    1.6595    8.9522 O   0  0  0  0  0  0  0  0  0  0  0  0
   -2.5451    0.6317    7.8933 C   0  0  0  0  0  0  0  0  0  0  0  0
    0.2003    2.3580    9.8675 H   0  0  0  0  0  0  0  0  0  0  0  0
    2.3228    1.9490    7.1444 H   0  0  0  0  0  0  0  0  0  0  0  0
    4.5068    2.3587    6.7410 H   0  0  0  0  0  0  0  0  0  0  0  0
    6.0050   -0.2907    6.1756 H   0  0  0  0  0  0  0  0  0  0  0  0
    4.5786   -3.0710    6.3251 H   0  0  0  0  0  0  0  0  0  0  0  0
    1.2453   -2.2396    7.1432 H   0  0  0  0  0  0  0  0  0  0  0  0
   -2.5269   -1.6954    5.4183 H   0  0  0  0  0  0  0  0  0  0  0  0
   -4.7122   -2.1133    4.9485 H   0  0  0  0  0  0  0  0  0  0  0  0
   -5.8771    0.1919    7.3647 H   0  0  0  0  0  0  0  0  0  0  0  0
   -3.7533    2.1022    9.4468 H   0  0  0  0  0  0  0  0  0  0  0  0
   -6.9256   -4.6511    0.2587 B   0  0  0  0  0  0  0  0  0  0  0  0
   -5.1098   -2.2493    0.3222 B   0  0  0  0  0  0  0  0  0  0  0  0
   -3.5915   -2.1814    0.2128 B   0  0  0  0  0  0  0  0  0  0  0  0
    0.9993   -2.8754    0.0638 B   0  0  0  0  0  0  0  0  0  0  0  0
    2.4759   -3.0122   -0.2709 B   0  0  0  0  0  0  0  0  0  0  0  0
    5.2994   -3.8314   -0.6672 B   0  0  0  0  0  0  0  0  0  0  0  0
    6.3183   -4.8359   -1.1558 B   0  0  0  0  0  0  0  0  0  0  0  0
   -6.4348   -3.1583    0.2864 B   0  0  0  0  0  0  0  0  0  0  0  0
   -6.7520   -1.6338    0.3164 B   0  0  0  0  0  0  0  0  0  0  0  0
   -2.0526   -2.3173    0.3349 B   0  0  0  0  0  0  0  0  0  0  0  0
   -0.4841   -2.4619    0.2574 B   0  0  0  0  0  0  0  0  0  0  0  0
    4.0184   -2.9011   -0.2872 B   0  0  0  0  0  0  0  0  0  0  0  0
    5.7532   -2.2815   -0.3028 B   0  0  0  0  0  0  0  0  0  0  0  0
    6.8301   -3.2288   -1.0929 B   0  0  0  0  0  0  0  0  0  0  0  0
   -7.6564   -0.2550    0.3431 B   0  0  0  0  0  0  0  0  0  0  0  0
   -6.0374   -0.1395    0.1913 B   0  0  0  0  0  0  0  0  0  0  0  0
   -4.4316   -0.5357    0.2239 B   0  0  0  0  0  0  0  0  0  0  0  0
   -2.7379   -0.6604    0.3290 B   0  0  0  0  0  0  0  0  0  0  0  0
   -1.0518   -0.9157    0.6419 B   0  0  0  0  0  0  0  0  0  0  0  0
    0.5171   -1.1722    0.7257 B   0  0  0  0  0  0  0  0  0  0  0  0
    3.1231   -1.4831   -0.0635 B   0  0  0  0  0  0  0  0  0  0  0  0
    4.7001   -1.1340    0.3402 B   0  0  0  0  0  0  0  0  0  0  0  0
    6.2667   -0.7872    0.2517 B   0  0  0  0  0  0  0  0  0  0  0  0
    7.6720   -0.3517    1.0327 B   0  0  0  0  0  0  0  0  0  0  0  0
   -6.9181    1.2121    0.1915 B   0  0  0  0  0  0  0  0  0  0  0  0
   -3.4184    0.7801    0.0809 B   0  0  0  0  0  0  0  0  0  0  0  0
   -1.6542    0.5326    0.1239 B   0  0  0  0  0  0  0  0  0  0  0  0
    1.8622   -0.4037    0.3246 B   0  0  0  0  0  0  0  0  0  0  0  0
    3.5847   -0.1504    0.7852 B   0  0  0  0  0  0  0  0  0  0  0  0
    6.9910    0.6111   -0.1068 B   0  0  0  0  0  0  0  0  0  0  0  0
    8.3074    1.0629    0.6316 B   0  0  0  0  0  0  0  0  0  0  0  0
   -7.6194    2.8040    0.2986 B   0  0  0  0  0  0  0  0  0  0  0  0
   -6.1238    2.5185   -0.1765 B   0  0  0  0  0  0  0  0  0  0  0  0
   -3.5886    2.3277   -0.2368 B   0  0  0  0  0  0  0  0  0  0  0  0
   -0.9061    1.8195   -0.4198 B   0  0  0  0  0  0  0  0  0  0  0  0
    1.6234    1.0199   -0.4108 B   0  0  0  0  0  0  0  0  0  0  0  0
    3.0108    1.3090    0.5297 B   0  0  0  0  0  0  0  0  0  0  0  0
    6.3729    1.8582   -0.9160 B   0  0  0  0  0  0  0  0  0  0  0  0
   -6.5277    4.0456   -0.1608 B   0  0  0  0  0  0  0  0  0  0  0  0
   -4.8736    3.4948   -0.3884 B   0  0  0  0  0  0  0  0  0  0  0  0
   -3.4155    3.8801   -0.6064 B   0  0  0  0  0  0  0  0  0  0  0  0
   -2.0235    3.2206   -0.6767 B   0  0  0  0  0  0  0  0  0  0  0  0
   -0.4974    3.2796   -0.8970 B   0  0  0  0  0  0  0  0  0  0  0  0
    0.7107    2.3324   -0.7457 B   0  0  0  0  0  0  0  0  0  0  0  0
    2.3353    2.4781   -0.4754 B   0  0  0  0  0  0  0  0  0  0  0  0
    3.8161    2.6195   -0.0941 B   0  0  0  0  0  0  0  0  0  0  0  0
    5.3698    2.8646   -0.1489 B   0  0  0  0  0  0  0  0  0  0  0  0
    6.0551    4.0800    0.6312 B   0  0  0  0  0  0  0  0  0  0  0  0
    6.2041    5.1477    0.1463 H   0  0  0  0  0  0  0  0  0  0  0  0
    8.2184   -1.1210    1.7268 H   0  0  0  0  0  0  0  0  0  0  0  0
    6.6224    1.9818   -2.0674 H   0  0  0  0  0  0  0  0  0  0  0  0
   -7.0900   -5.2506   -0.7538 H   0  0  0  0  0  0  0  0  0  0  0  0
   -6.7912    5.1815   -0.2852 H   0  0  0  0  0  0  0  0  0  0  0  0
    9.1569    1.8466    0.7900 H   0  0  0  0  0  0  0  0  0  0  0  0
   -8.8277   -0.3758    0.3286 H   0  0  0  0  0  0  0  0  0  0  0  0
    6.7839   -5.8690   -1.4465 H   0  0  0  0  0  0  0  0  0  0  0  0
   -8.7247    3.0012    0.6388 H   0  0  0  0  0  0  0  0  0  0  0  0
    7.8918   -2.8835   -1.4737 H   0  0  0  0  0  0  0  0  0  0  0  0
    6.4282    3.9996    1.7485 H   0  0  0  0  0  0  0  0  0  0  0  0
   -7.2249   -5.2823    1.2187 H   0  0  0  0  0  0  0  0  0  0  0  0
  1  2  2  0  0  0  0
  2  3  1  0  0  0  0
  3  4  1  0  0  0  0
  3  5  2  0  0  0  0
  5  6  1  0  0  0  0
  6  7  4  0  0  0  0
  7  8  4  0  0  0  0
  8  9  1  0  0  0  0
  8 10  4  0  0  0  0
 10 11  1  0  0  0  0
 10 12  4  0  0  0  0
 12 13  1  0  0  0  0
  6 14  4  0  0  0  0
 12 14  4  0  0  0  0
  5 15  1  0  0  0  0
 15 16  1  0  0  0  0
 16 17  4  0  0  0  0
 17 18  4  0  0  0  0
 18 19  1  0  0  0  0
 18 20  4  0  0  0  0
 20 21  4  0  0  0  0
 21 22  1  0  0  0  0
  2 23  1  0  0  0  0
 16 23  4  0  0  0  0
 21 23  4  0  0  0  0
  4 24  1  0  0  0  0
  7 25  1  0  0  0  0
  9 26  1  0  0  0  0
 11 27  1  0  0  0  0
 13 28  1  0  0  0  0
 14 29  1  0  0  0  0
 17 30  1  0  0  0  0
 19 31  1  0  0  0  0
 20 32  1  0  0  0  0
 22 33  1  0  0  0  0
 35 36  1  0  0  0  0
 37 38  2  0  0  0  0
 39 40  2  0  0  0  0
 34 41  1  0  0  0  0
 35 41  1  0  0  0  0
 35 42  1  0  0  0  0
 41 42  1  0  0  0  0
 36 43  1  0  0  0  0
 37 44  1  0  0  0  0
 43 44  1  0  0  0  0
 38 45  1  0  0  0  0
 39 45  1  0  0  0  0
 39 46  1  0  0  0  0
 45 46  1  0  0  0  0
 39 47  1  0  0  0  0
 40 47  1  0  0  0  0
 46 47  1  0  0  0  0
 42 48  1  0  0  0  0
 42 49  1  0  0  0  0
 48 49  1  0  0  0  0
 35 50  1  0  0  0  0
 36 50  1  0  0  0  0
 49 50  1  0  0  0  0
 36 51  1  0  0  0  0
 43 51  1  0  0  0  0
 50 51  1  0  0  0  0
 43 52  1  0  0  0  0
 44 52  1  0  0  0  0
 51 52  1  0  0  0  0
 37 53  1  0  0  0  0
 44 53  1  0  0  0  0
 52 53  1  0  0  0  0
 38 54  1  0  0  0  0
 45 54  1  0  0  0  0
 45 55  1  0  0  0  0
 46 55  1  0  0  0  0
 54 55  1  0  0  0  0
 46 56  1  0  0  0  0
 55 56  1  0  0  0  0
 56 57  1  0  0  0  0
 48 58  1  0  0  0  0
 49 58  1  0  0  0  0
 50 59  1  0  0  0  0
 51 59  1  0  0  0  0
 51 60  1  0  0  0  0
 52 60  1  0  0  0  0
 59 60  1  0  0  0  0
 53 61  1  0  0  0  0
 54 61  1  0  0  0  0
 54 62  1  0  0  0  0
 55 62  1  0  0  0  0
 61 62  1  0  0  0  0
 56 63  1  0  0  0  0
 57 63  1  0  0  0  0
 57 64  1  0  0  0  0
 63 64  1  0  0  0  0
 58 65  1  0  0  0  0
 58 66  1  0  0  0  0
 65 66  1  0  0  0  0
 59 67  1  0  0  0  0
 60 68  1  0  0  0  0
 61 69  1  0  0  0  0
 62 70  1  0  0  0  0
 69 70  1  0  0  0  0
 63 71  1  0  0  0  0
 65 72  1  0  0  0  0
 66 72  1  0  0  0  0
 66 73  1  0  0  0  0
 67 73  1  0  0  0  0
 72 73  1  0  0  0  0
 67 74  1  0  0  0  0
 73 74  1  0  0  0  0
 67 75  1  0  0  0  0
 68 75  1  0  0  0  0
 74 75  1  0  0  0  0
 68 76  1  0  0  0  0
 75 76  1  0  0  0  0
 68 77  1  0  0  0  0
 69 77  1  0  0  0  0
 76 77  1  0  0  0  0
 69 78  1  0  0  0  0
 70 78  1  0  0  0  0
 77 78  1  0  0  0  0
 70 79  1  0  0  0  0
 78 79  1  0  0  0  0
 71 80  1  0  0  0  0
 79 80  1  0  0  0  0
 80 81  1  0  0  0  0
 81 82  1  0  0  0  0
 57 83  1  0  0  0  0
 71 84  1  0  0  0  0
 34 85  1  0  0  0  0
 72 86  1  0  0  0  0
 64 87  1  0  0  0  0
 48 88  1  0  0  0  0
 40 89  1  0  0  0  0
 65 90  1  0  0  0  0
 47 91  1  0  0  0  0
 81 92  1  0  0  0  0
 34 93  1  0  0  0  0
M  END
