 xtb: 6.7.1 (edcfbbe)
          09242620033D

 60110  0     0  0            999 V2000
   -5.8562    3.4095    0.5453 B   0  0  0  0  0  0  0  0  0  0  0  0
   -5.8658    1.7320    0.1981 B   0  0  0  0  0  0  0  0  0  0  0  0
   -4.4021    4.2467    0.1560 B   0  0  0  0  0  0  0  0  0  0  0  0
   -4.4072    2.5634    0.3006 B   0  0  0  0  0  0  0  0  0  0  0  0
   -4.4087    0.8657    0.3647 B   0  0  0  0  0  0  0  0  0  0  0  0
   -5.8747   -1.6667    0.1800 B   0  0  0  0  0  0  0  0  0  0  0  0
   -5.8742   -3.3442    0.5473 B   0  0  0  0  0  0  0  0  0  0  0  0
   -4.4135   -0.8085    0.3577 B   0  0  0  0  0  0  0  0  0  0  0  0
   -4.4205   -2.5059    0.2901 B   0  0  0  0  0  0  0  0  0  0  0  0
   -4.4253   -4.1883    0.1427 B   0  0  0  0  0  0  0  0  0  0  0  0
   -2.9315    3.4153    0.2787 B   0  0  0  0  0  0  0  0  0  0  0  0
   -2.9382    1.7065    0.3422 B   0  0  0  0  0  0  0  0  0  0  0  0
   -1.4663    4.2377    0.5073 B   0  0  0  0  0  0  0  0  0  0  0  0
   -1.4738    2.5557    0.3365 B   0  0  0  0  0  0  0  0  0  0  0  0
   -1.4802    0.8613    0.1906 B   0  0  0  0  0  0  0  0  0  0  0  0
   -2.9471   -1.6567    0.3628 B   0  0  0  0  0  0  0  0  0  0  0  0
   -2.9500   -3.3657    0.2544 B   0  0  0  0  0  0  0  0  0  0  0  0
   -1.4847   -0.8200    0.1889 B   0  0  0  0  0  0  0  0  0  0  0  0
   -1.4869   -2.5139    0.3422 B   0  0  0  0  0  0  0  0  0  0  0  0
   -1.4905   -4.1962    0.5024 B   0  0  0  0  0  0  0  0  0  0  0  0
   -0.0053    3.4061    0.2880 B   0  0  0  0  0  0  0  0  0  0  0  0
   -0.0108    1.6992    0.2364 B   0  0  0  0  0  0  0  0  0  0  0  0
    1.4581    4.2320    0.0647 B   0  0  0  0  0  0  0  0  0  0  0  0
    1.4561    2.5482    0.1979 B   0  0  0  0  0  0  0  0  0  0  0  0
    1.4518    0.8528    0.2637 B   0  0  0  0  0  0  0  0  0  0  0  0
   -0.0208   -1.6660    0.1633 B   0  0  0  0  0  0  0  0  0  0  0  0
   -0.0221   -3.3694    0.4017 B   0  0  0  0  0  0  0  0  0  0  0  0
    1.4471   -0.8274    0.2439 B   0  0  0  0  0  0  0  0  0  0  0  0
    1.4432   -2.5224    0.2910 B   0  0  0  0  0  0  0  0  0  0  0  0
    1.4405   -4.2077    0.3875 B   0  0  0  0  0  0  0  0  0  0  0  0
    2.9211    3.3993    0.2664 B   0  0  0  0  0  0  0  0  0  0  0  0
    2.9187    1.6910    0.2110 B   0  0  0  0  0  0  0  0  0  0  0  0
    4.3929    4.2208    0.4401 B   0  0  0  0  0  0  0  0  0  0  0  0
    4.3896    2.5386    0.3131 B   0  0  0  0  0  0  0  0  0  0  0  0
    4.3822    0.8415    0.2420 B   0  0  0  0  0  0  0  0  0  0  0  0
    2.9106   -1.6729    0.2822 B   0  0  0  0  0  0  0  0  0  0  0  0
    2.9012   -3.3808    0.1556 B   0  0  0  0  0  0  0  0  0  0  0  0
    4.3767   -0.8315    0.1595 B   0  0  0  0  0  0  0  0  0  0  0  0
    4.3725   -2.5285    0.1016 B   0  0  0  0  0  0  0  0  0  0  0  0
    4.3648   -4.2112   -0.0076 B   0  0  0  0  0  0  0  0  0  0  0  0
    5.8471    3.3793    0.0573 B   0  0  0  0  0  0  0  0  0  0  0  0
    5.8453    1.6974    0.4104 B   0  0  0  0  0  0  0  0  0  0  0  0
    5.8297   -1.6957   -0.0380 B   0  0  0  0  0  0  0  0  0  0  0  0
    5.8324   -3.3762    0.3500 B   0  0  0  0  0  0  0  0  0  0  0  0
   -6.7808    3.9932    0.9710 H   0  0  0  0  0  0  0  0  0  0  0  0
   -6.8305    1.2363   -0.2394 H   0  0  0  0  0  0  0  0  0  0  0  0
   -4.4617    5.3668   -0.1945 H   0  0  0  0  0  0  0  0  0  0  0  0
   -6.8400   -1.1783   -0.2660 H   0  0  0  0  0  0  0  0  0  0  0  0
   -6.8053   -3.9102    0.9826 H   0  0  0  0  0  0  0  0  0  0  0  0
   -4.4954   -5.2949   -0.2469 H   0  0  0  0  0  0  0  0  0  0  0  0
   -1.4695    5.3789    0.7915 H   0  0  0  0  0  0  0  0  0  0  0  0
   -1.5092   -5.3372    0.7878 H   0  0  0  0  0  0  0  0  0  0  0  0
    1.4612    5.3812   -0.1858 H   0  0  0  0  0  0  0  0  0  0  0  0
    1.4514   -5.3757    0.5303 H   0  0  0  0  0  0  0  0  0  0  0  0
    4.4551    5.3264    0.8343 H   0  0  0  0  0  0  0  0  0  0  0  0
    4.4187   -5.3148   -0.4104 H   0  0  0  0  0  0  0  0  0  0  0  0
    6.7796    3.9578   -0.3564 H   0  0  0  0  0  0  0  0  0  0  0  0
    6.7922    1.1988    0.8875 H   0  0  0  0  0  0  0  0  0  0  0  0
    6.7764   -1.2143   -0.5346 H   0  0  0  0  0  0  0  0  0  0  0  0
    6.7737   -3.9416    0.7630 H   0  0  0  0  0  0  0  0  0  0  0  0
  1  2  1  0  0  0  0
  1  3  1  0  0  0  0
  1  4  1  0  0  0  0
  2  4  1  0  0  0  0
  3  4  1  0  0  0  0
  2  5  1  0  0  0  0
  4  5  1  0  0  0  0
  6  7  1  0  0  0  0
  5  8  1  0  0  0  0
  6  8  1  0  0  0  0
  6  9  1  0  0  0  0
  7  9  1  0  0  0  0
  8  9  1  0  0  0  0
  7 10  1  0  0  0  0
  9 10  1  0  0  0  0
  3 11  1  0  0  0  0
  4 11  1  0  0  0  0
  4 12  1  0  0  0  0
  5 12  1  0  0  0  0
 11 12  1  0  0  0  0
 11 13  1  0  0  0  0
 11 14  1  0  0  0  0
 12 14  1  0  0  0  0
 13 14  1  0  0  0  0
 12 15  1  0  0  0  0
 14 15  1  0  0  0  0
  8 16  1  0  0  0  0
  9 16  1  0  0  0  0
  9 17  1  0  0  0  0
 10 17  1  0  0  0  0
 16 17  1  0  0  0  0
 15 18  1  0  0  0  0
 16 18  1  0  0  0  0
 16 19  1  0  0  0  0
 17 19  1  0  0  0  0
 18 19  1  0  0  0  0
 17 20  1  0  0  0  0
 19 20  1  0  0  0  0
 13 21  1  0  0  0  0
 14 21  1  0  0  0  0
 14 22  1  0  0  0  0
 15 22  1  0  0  0  0
 21 22  1  0  0  0  0
 21 23  1  0  0  0  0
 21 24  1  0  0  0  0
 22 24  1  0  0  0  0
 23 24  1  0  0  0  0
 22 25  1  0  0  0  0
 24 25  1  0  0  0  0
 18 26  1  0  0  0  0
 19 26  1  0  0  0  0
 19 27  1  0  0  0  0
 20 27  1  0  0  0  0
 26 27  1  0  0  0  0
 25 28  1  0  0  0  0
 26 28  1  0  0  0  0
 26 29  1  0  0  0  0
 27 29  1  0  0  0  0
 28 29  1  0  0  0  0
 27 30  1  0  0  0  0
 29 30  1  0  0  0  0
 23 31  1  0  0  0  0
 24 31  1  0  0  0  0
 24 32  1  0  0  0  0
 25 32  1  0  0  0  0
 31 32  1  0  0  0  0
 31 33  1  0  0  0  0
 31 34  1  0  0  0  0
 32 34  1  0  0  0  0
 33 34  1  0  0  0  0
 32 35  1  0  0  0  0
 34 35  1  0  0  0  0
 28 36  1  0  0  0  0
 29 36  1  0  0  0  0
 29 37  1  0  0  0  0
 30 37  1  0  0  0  0
 36 37  1  0  0  0  0
 35 38  1  0  0  0  0
 36 38  1  0  0  0  0
 36 39  1  0  0  0  0
 37 39  1  0  0  0  0
 38 39  1  0  0  0  0
 37 40  1  0  0  0  0
 39 40  1  0  0  0  0
 33 41  1  0  0  0  0
 34 41  1  0  0  0  0
 34 42  1  0  0  0  0
 35 42  1  0  0  0  0
 41 42  1  0  0  0  0
 38 43  1  0  0  0  0
 39 43  1  0  0  0  0
 39 44  1  0  0  0  0
 40 44  1  0  0  0  0
 43 44  1  0  0  0  0
  1 45  1  0  0  0  0
  2 46  1  0  0  0  0
  3 47  1  0  0  0  0
  6 48  1  0  0  0  0
  7 49  1  0  0  0  0
 10 50  1  0  0  0  0
 13 51  1  0  0  0  0
 20 52  1  0  0  0  0
 23 53  1  0  0  0  0
 30 54  1  0  0  0  0
 33 55  1  0  0  0  0
 40 56  1  0  0  0  0
 41 57  1  0  0  0  0
 42 58  1  0  0  0  0
 43 59  1  0  0  0  0
 44 60  1  0  0  0  0
M  END
