 xtb: 6.7.1pre (5071a88)
          08312621153D

100156  0     0  0            999 V2000
    4.8240   -1.5816    3.8813 C   0  0  0  0  0  0  0  0  0  0  0  0
    3.8718   -0.5524    4.1091 O   0  0  0  0  0  0  0  0  0  0  0  0
    2.6857   -0.9208    4.6722 C   0  0  0  0  0  0  0  0  0  0  0  0
    2.3351   -2.2038    5.0983 C   0  0  0  0  0  0  0  0  0  0  0  0
    1.0399   -2.4735    5.5882 C   0  0  0  0  0  0  0  0  0  0  0  0
    0.0787   -1.4576    5.7112 C   0  0  0  0  0  0  0  0  0  0  0  0
    0.4798   -0.1661    5.4147 C   0  0  0  0  0  0  0  0  0  0  0  0
    1.7318    0.0720    4.8302 C   0  0  0  0  0  0  0  0  0  0  0  0
    1.8455    1.3628    4.3292 O   0  0  0  0  0  0  0  0  0  0  0  0
    0.8399    2.0270    5.0994 C   0  0  0  0  0  0  0  0  0  0  0  0
    0.3764    3.3800    4.6016 C   0  0  0  0  0  0  0  0  0  0  0  0
   -0.6331    3.9174    5.6088 C   0  0  0  0  0  0  0  0  0  0  0  0
   -0.9850    5.0946    5.6138 O   0  0  0  0  0  0  0  0  0  0  0  0
   -1.2281    2.9792    6.6209 C   0  0  0  0  0  0  0  0  0  0  0  0
   -1.0774    1.6461    6.5007 C   0  0  0  0  0  0  0  0  0  0  0  0
   -0.3564    1.0646    5.3097 C   0  0  0  0  0  0  0  0  0  0  0  0
   -1.3331    0.8291    4.1362 C   0  0  0  0  0  0  0  0  0  0  0  0
   -2.5045   -0.1315    4.4665 C   0  0  0  0  0  0  0  0  0  0  0  0
   -2.1778   -1.5476    4.7324 N   0  0  0  0  0  0  0  0  0  0  0  0
   -3.4187   -2.3260    4.8134 C   0  0  0  0  0  0  0  0  0  0  0  0
   -1.3761   -1.7671    5.9524 C   0  0  0  0  0  0  0  0  0  0  0  0
    5.1543   -2.0287    4.8247 H   0  0  0  0  0  0  0  0  0  0  0  0
    4.4295   -2.3428    3.2000 H   0  0  0  0  0  0  0  0  0  0  0  0
    5.6985   -1.1290    3.4039 H   0  0  0  0  0  0  0  0  0  0  0  0
    3.0239   -3.0379    5.0117 H   0  0  0  0  0  0  0  0  0  0  0  0
    0.7733   -3.5050    5.8120 H   0  0  0  0  0  0  0  0  0  0  0  0
    1.3394    2.2243    6.0687 H   0  0  0  0  0  0  0  0  0  0  0  0
   -0.0740    3.3250    3.6066 H   0  0  0  0  0  0  0  0  0  0  0  0
    1.2282    4.0662    4.5452 H   0  0  0  0  0  0  0  0  0  0  0  0
   -1.7796    3.4376    7.4339 H   0  0  0  0  0  0  0  0  0  0  0  0
   -1.5136    0.9886    7.2448 H   0  0  0  0  0  0  0  0  0  0  0  0
   -0.8046    0.4551    3.2482 H   0  0  0  0  0  0  0  0  0  0  0  0
   -1.7847    1.7816    3.8298 H   0  0  0  0  0  0  0  0  0  0  0  0
   -3.1013    0.2795    5.2910 H   0  0  0  0  0  0  0  0  0  0  0  0
   -3.1584   -0.1010    3.5839 H   0  0  0  0  0  0  0  0  0  0  0  0
   -4.0036   -2.2229    3.8924 H   0  0  0  0  0  0  0  0  0  0  0  0
   -3.1995   -3.3947    4.9183 H   0  0  0  0  0  0  0  0  0  0  0  0
   -4.0439   -2.0152    5.6582 H   0  0  0  0  0  0  0  0  0  0  0  0
   -1.4377   -2.8225    6.2512 H   0  0  0  0  0  0  0  0  0  0  0  0
   -1.7646   -1.2028    6.8074 H   0  0  0  0  0  0  0  0  0  0  0  0
   -6.3511   -2.8545   -0.3396 B   0  0  0  0  0  0  0  0  0  0  0  0
   -3.8632   -3.4276    0.8712 B   0  0  0  0  0  0  0  0  0  0  0  0
   -1.0552   -4.1651    1.9793 B   0  0  0  0  0  0  0  0  0  0  0  0
    1.6853   -4.2318    1.3549 B   0  0  0  0  0  0  0  0  0  0  0  0
    2.9703   -3.6923    0.6219 B   0  0  0  0  0  0  0  0  0  0  0  0
    5.9076   -3.8486   -0.3800 B   0  0  0  0  0  0  0  0  0  0  0  0
   -4.7612   -2.3307   -0.4078 B   0  0  0  0  0  0  0  0  0  0  0  0
   -2.6199   -2.2111    0.8442 B   0  0  0  0  0  0  0  0  0  0  0  0
   -1.2327   -2.3911    1.7792 B   0  0  0  0  0  0  0  0  0  0  0  0
    0.2814   -3.1446    1.2586 B   0  0  0  0  0  0  0  0  0  0  0  0
    3.1280   -2.1353    0.0337 B   0  0  0  0  0  0  0  0  0  0  0  0
    5.2824   -2.5807   -1.1427 B   0  0  0  0  0  0  0  0  0  0  0  0
   -4.3827   -1.0545   -1.3461 B   0  0  0  0  0  0  0  0  0  0  0  0
   -3.1924   -1.2685   -0.2398 B   0  0  0  0  0  0  0  0  0  0  0  0
   -0.7667   -0.9151    2.1471 B   0  0  0  0  0  0  0  0  0  0  0  0
    0.4341   -1.5098    0.8825 B   0  0  0  0  0  0  0  0  0  0  0  0
    4.2603   -1.2719   -0.6057 B   0  0  0  0  0  0  0  0  0  0  0  0
    6.8452   -2.4756   -0.8065 B   0  0  0  0  0  0  0  0  0  0  0  0
   -5.0072   -0.6437   -2.8496 B   0  0  0  0  0  0  0  0  0  0  0  0
   -3.1952    0.1543   -0.9257 B   0  0  0  0  0  0  0  0  0  0  0  0
   -0.9469    0.6233    2.2104 B   0  0  0  0  0  0  0  0  0  0  0  0
    0.0016   -0.0204    0.9084 B   0  0  0  0  0  0  0  0  0  0  0  0
    4.8754    0.2242   -0.5476 B   0  0  0  0  0  0  0  0  0  0  0  0
    5.8786   -1.0664   -1.1306 B   0  0  0  0  0  0  0  0  0  0  0  0
   -5.7672    0.8535   -2.9176 B   0  0  0  0  0  0  0  0  0  0  0  0
   -2.8971    1.6282   -0.7083 B   0  0  0  0  0  0  0  0  0  0  0  0
   -1.2399    2.1332    2.0889 B   0  0  0  0  0  0  0  0  0  0  0  0
    0.1883    1.5499    1.0540 B   0  0  0  0  0  0  0  0  0  0  0  0
    4.2581    1.5841    0.0647 B   0  0  0  0  0  0  0  0  0  0  0  0
    6.3075    0.4397   -1.6258 B   0  0  0  0  0  0  0  0  0  0  0  0
   -5.7341    1.7554   -1.4938 B   0  0  0  0  0  0  0  0  0  0  0  0
   -3.3469    2.9740   -0.1746 B   0  0  0  0  0  0  0  0  0  0  0  0
   -1.6646    3.6160    1.7973 B   0  0  0  0  0  0  0  0  0  0  0  0
   -0.0590    3.1640    1.3235 B   0  0  0  0  0  0  0  0  0  0  0  0
    2.9656    2.2589    0.6844 B   0  0  0  0  0  0  0  0  0  0  0  0
    5.7919    1.6725   -0.6985 B   0  0  0  0  0  0  0  0  0  0  0  0
   -6.6389    2.8000   -0.8422 B   0  0  0  0  0  0  0  0  0  0  0  0
   -4.4746    3.8873    0.5879 B   0  0  0  0  0  0  0  0  0  0  0  0
   -1.7771    5.1752    1.2154 B   0  0  0  0  0  0  0  0  0  0  0  0
    1.1754    4.4066    1.3290 B   0  0  0  0  0  0  0  0  0  0  0  0
    2.5938    3.9229    0.8796 B   0  0  0  0  0  0  0  0  0  0  0  0
    5.3509    2.9860   -0.0541 B   0  0  0  0  0  0  0  0  0  0  0  0
   -5.3190   -3.6348    0.4165 B   0  0  0  0  0  0  0  0  0  0  0  0
   -2.4877   -3.6329    1.6055 B   0  0  0  0  0  0  0  0  0  0  0  0
    0.3596   -4.7213    1.9063 B   0  0  0  0  0  0  0  0  0  0  0  0
    1.7215   -2.4162    0.7345 B   0  0  0  0  0  0  0  0  0  0  0  0
    4.3387   -3.4800   -0.0729 B   0  0  0  0  0  0  0  0  0  0  0  0
   -5.0953    2.8472   -0.3735 B   0  0  0  0  0  0  0  0  0  0  0  0
   -3.0345    4.3187    0.9326 B   0  0  0  0  0  0  0  0  0  0  0  0
   -0.2869    4.8951    1.4426 B   0  0  0  0  0  0  0  0  0  0  0  0
    1.4616    2.5482    0.9924 B   0  0  0  0  0  0  0  0  0  0  0  0
    4.0784    3.6198    0.5106 B   0  0  0  0  0  0  0  0  0  0  0  0
   -4.5957    0.5913   -1.8415 B   0  0  0  0  0  0  0  0  0  0  0  0
   -7.3684   -2.5027   -0.8103 H   0  0  0  0  0  0  0  0  0  0  0  0
   -4.9591   -1.3760   -3.7739 H   0  0  0  0  0  0  0  0  0  0  0  0
   -6.3246    1.2608   -3.8715 H   0  0  0  0  0  0  0  0  0  0  0  0
   -7.6134    3.4017   -0.5976 H   0  0  0  0  0  0  0  0  0  0  0  0
    6.3612   -4.9354   -0.3602 H   0  0  0  0  0  0  0  0  0  0  0  0
    8.0163   -2.4682   -0.9061 H   0  0  0  0  0  0  0  0  0  0  0  0
    6.9392    0.6146   -2.6128 H   0  0  0  0  0  0  0  0  0  0  0  0
  1  2  1  0  0  0  0
  2  3  1  0  0  0  0
  3  4  4  0  0  0  0
  4  5  4  0  0  0  0
  5  6  4  0  0  0  0
  6  7  4  0  0  0  0
  3  8  4  0  0  0  0
  7  8  4  0  0  0  0
  8  9  1  0  0  0  0
  9 10  1  0  0  0  0
 10 11  1  0  0  0  0
 11 12  1  0  0  0  0
 12 13  2  0  0  0  0
 12 14  1  0  0  0  0
 14 15  2  0  0  0  0
  7 16  1  0  0  0  0
 10 16  1  0  0  0  0
 15 16  1  0  0  0  0
 16 17  1  0  0  0  0
 17 18  1  0  0  0  0
 18 19  1  0  0  0  0
 19 20  1  0  0  0  0
  6 21  1  0  0  0  0
 19 21  1  0  0  0  0
  1 22  1  0  0  0  0
  1 23  1  0  0  0  0
  1 24  1  0  0  0  0
  4 25  1  0  0  0  0
  5 26  1  0  0  0  0
 10 27  1  0  0  0  0
 11 28  1  0  0  0  0
 11 29  1  0  0  0  0
 14 30  1  0  0  0  0
 15 31  1  0  0  0  0
 17 32  1  0  0  0  0
 17 33  1  0  0  0  0
 18 34  1  0  0  0  0
 18 35  1  0  0  0  0
 20 36  1  0  0  0  0
 20 37  1  0  0  0  0
 20 38  1  0  0  0  0
 21 39  1  0  0  0  0
 21 40  1  0  0  0  0
 44 45  1  0  0  0  0
 41 47  1  0  0  0  0
 42 47  1  0  0  0  0
 42 48  1  0  0  0  0
 43 49  1  0  0  0  0
 48 49  1  0  0  0  0
 43 50  1  0  0  0  0
 44 50  1  0  0  0  0
 49 50  1  0  0  0  0
 45 51  1  0  0  0  0
 46 52  1  0  0  0  0
 47 53  1  0  0  0  0
 47 54  1  0  0  0  0
 48 54  1  0  0  0  0
 53 54  1  0  0  0  0
 49 55  1  0  0  0  0
 50 56  1  0  0  0  0
 55 56  1  0  0  0  0
 51 57  1  0  0  0  0
 52 57  1  0  0  0  0
 46 58  1  0  0  0  0
 52 58  1  0  0  0  0
 53 59  1  0  0  0  0
 53 60  1  0  0  0  0
 54 60  1  0  0  0  0
 55 61  1  0  0  0  0
 55 62  1  0  0  0  0
 56 62  1  0  0  0  0
 61 62  1  0  0  0  0
 57 63  1  0  0  0  0
 52 64  1  0  0  0  0
 57 64  1  0  0  0  0
 58 64  1  0  0  0  0
 63 64  1  0  0  0  0
 59 65  1  0  0  0  0
 60 66  1  0  0  0  0
 61 67  1  0  0  0  0
 61 68  1  0  0  0  0
 62 68  1  0  0  0  0
 67 68  1  0  0  0  0
 63 69  1  0  0  0  0
 63 70  1  0  0  0  0
 64 70  1  0  0  0  0
 65 71  1  0  0  0  0
 66 72  2  0  0  0  0
 67 73  1  0  0  0  0
 67 74  1  0  0  0  0
 68 74  1  0  0  0  0
 73 74  1  0  0  0  0
 69 75  1  0  0  0  0
 63 76  1  0  0  0  0
 69 76  1  0  0  0  0
 70 76  1  0  0  0  0
 71 77  1  0  0  0  0
 72 78  1  0  0  0  0
 73 79  1  0  0  0  0
 74 80  1  0  0  0  0
 75 81  1  0  0  0  0
 80 81  1  0  0  0  0
 69 82  1  0  0  0  0
 76 82  1  0  0  0  0
 41 83  2  0  0  0  0
 42 83  1  0  0  0  0
 47 83  1  0  0  0  0
 42 84  1  0  0  0  0
 43 84  1  0  0  0  0
 48 84  1  0  0  0  0
 49 84  1  0  0  0  0
 43 85  1  0  0  0  0
 44 85  1  0  0  0  0
 50 85  1  0  0  0  0
 44 86  1  0  0  0  0
 45 86  1  0  0  0  0
 50 86  1  0  0  0  0
 51 86  1  0  0  0  0
 56 86  1  0  0  0  0
 45 87  1  0  0  0  0
 46 87  1  0  0  0  0
 51 87  1  0  0  0  0
 52 87  1  0  0  0  0
 71 88  1  0  0  0  0
 72 88  1  0  0  0  0
 77 88  1  0  0  0  0
 78 88  1  0  0  0  0
 72 89  1  0  0  0  0
 73 89  1  0  0  0  0
 78 89  1  0  0  0  0
 79 89  1  0  0  0  0
 73 90  1  0  0  0  0
 74 90  1  0  0  0  0
 79 90  1  0  0  0  0
 80 90  1  0  0  0  0
 68 91  1  0  0  0  0
 74 91  1  0  0  0  0
 75 91  1  0  0  0  0
 80 91  1  0  0  0  0
 81 91  1  0  0  0  0
 69 92  1  0  0  0  0
 75 92  1  0  0  0  0
 81 92  1  0  0  0  0
 82 92  1  0  0  0  0
 53 93  1  0  0  0  0
 59 93  1  0  0  0  0
 60 93  1  0  0  0  0
 65 93  1  0  0  0  0
 71 93  1  0  0  0  0
 41 94  1  0  0  0  0
 59 95  1  0  0  0  0
 65 96  1  0  0  0  0
 77 97  1  0  0  0  0
 46 98  1  0  0  0  0
 58 99  1  0  0  0  0
 70100  1  0  0  0  0
M  END
