 xtb: 6.7.1pre (5071a88)
          09012616343D

100143  0     0  0            999 V2000
    4.8240   -1.5816    5.6298 C   0  0  0  0  0  0  0  0  0  0  0  0
    3.8718   -0.5524    5.8576 O   0  0  0  0  0  0  0  0  0  0  0  0
    2.6857   -0.9208    6.4207 C   0  0  0  0  0  0  0  0  0  0  0  0
    2.3351   -2.2038    6.8468 C   0  0  0  0  0  0  0  0  0  0  0  0
    1.0399   -2.4735    7.3367 C   0  0  0  0  0  0  0  0  0  0  0  0
    0.0787   -1.4576    7.4596 C   0  0  0  0  0  0  0  0  0  0  0  0
    0.4798   -0.1661    7.1632 C   0  0  0  0  0  0  0  0  0  0  0  0
    1.7318    0.0720    6.5787 C   0  0  0  0  0  0  0  0  0  0  0  0
    1.8455    1.3628    6.0776 O   0  0  0  0  0  0  0  0  0  0  0  0
    0.8399    2.0270    6.8478 C   0  0  0  0  0  0  0  0  0  0  0  0
    0.3764    3.3800    6.3500 C   0  0  0  0  0  0  0  0  0  0  0  0
   -0.6331    3.9174    7.3573 C   0  0  0  0  0  0  0  0  0  0  0  0
   -0.9850    5.0946    7.3623 O   0  0  0  0  0  0  0  0  0  0  0  0
   -1.2281    2.9792    8.3694 C   0  0  0  0  0  0  0  0  0  0  0  0
   -1.0774    1.6461    8.2491 C   0  0  0  0  0  0  0  0  0  0  0  0
   -0.3564    1.0646    7.0581 C   0  0  0  0  0  0  0  0  0  0  0  0
   -1.3331    0.8291    5.8847 C   0  0  0  0  0  0  0  0  0  0  0  0
   -2.5045   -0.1315    6.2149 C   0  0  0  0  0  0  0  0  0  0  0  0
   -2.1778   -1.5476    6.4808 N   0  0  0  0  0  0  0  0  0  0  0  0
   -3.4187   -2.3260    6.5618 C   0  0  0  0  0  0  0  0  0  0  0  0
   -1.3761   -1.7671    7.7009 C   0  0  0  0  0  0  0  0  0  0  0  0
    5.1543   -2.0287    6.5732 H   0  0  0  0  0  0  0  0  0  0  0  0
    4.4295   -2.3428    4.9485 H   0  0  0  0  0  0  0  0  0  0  0  0
    5.6985   -1.1290    5.1523 H   0  0  0  0  0  0  0  0  0  0  0  0
    3.0239   -3.0379    6.7602 H   0  0  0  0  0  0  0  0  0  0  0  0
    0.7733   -3.5050    7.5605 H   0  0  0  0  0  0  0  0  0  0  0  0
    1.3394    2.2243    7.8171 H   0  0  0  0  0  0  0  0  0  0  0  0
   -0.0740    3.3250    5.3550 H   0  0  0  0  0  0  0  0  0  0  0  0
    1.2282    4.0662    6.2937 H   0  0  0  0  0  0  0  0  0  0  0  0
   -1.7796    3.4376    9.1824 H   0  0  0  0  0  0  0  0  0  0  0  0
   -1.5136    0.9886    8.9932 H   0  0  0  0  0  0  0  0  0  0  0  0
   -0.8046    0.4551    4.9967 H   0  0  0  0  0  0  0  0  0  0  0  0
   -1.7847    1.7816    5.5782 H   0  0  0  0  0  0  0  0  0  0  0  0
   -3.1013    0.2795    7.0394 H   0  0  0  0  0  0  0  0  0  0  0  0
   -3.1584   -0.1010    5.3323 H   0  0  0  0  0  0  0  0  0  0  0  0
   -4.0036   -2.2229    5.6409 H   0  0  0  0  0  0  0  0  0  0  0  0
   -3.1995   -3.3947    6.6668 H   0  0  0  0  0  0  0  0  0  0  0  0
   -4.0439   -2.0152    7.4067 H   0  0  0  0  0  0  0  0  0  0  0  0
   -1.4377   -2.8225    7.9997 H   0  0  0  0  0  0  0  0  0  0  0  0
   -1.7646   -1.2028    8.5559 H   0  0  0  0  0  0  0  0  0  0  0  0
   -6.9256   -4.6511    0.2587 B   0  0  0  0  0  0  0  0  0  0  0  0
   -5.1098   -2.2493    0.3222 B   0  0  0  0  0  0  0  0  0  0  0  0
   -3.5915   -2.1814    0.2128 B   0  0  0  0  0  0  0  0  0  0  0  0
    0.9993   -2.8754    0.0638 B   0  0  0  0  0  0  0  0  0  0  0  0
    2.4759   -3.0122   -0.2709 B   0  0  0  0  0  0  0  0  0  0  0  0
    5.2994   -3.8314   -0.6672 B   0  0  0  0  0  0  0  0  0  0  0  0
    6.3183   -4.8359   -1.1558 B   0  0  0  0  0  0  0  0  0  0  0  0
   -6.4348   -3.1583    0.2864 B   0  0  0  0  0  0  0  0  0  0  0  0
   -6.7520   -1.6338    0.3164 B   0  0  0  0  0  0  0  0  0  0  0  0
   -2.0526   -2.3173    0.3349 B   0  0  0  0  0  0  0  0  0  0  0  0
   -0.4841   -2.4619    0.2574 B   0  0  0  0  0  0  0  0  0  0  0  0
    4.0184   -2.9011   -0.2872 B   0  0  0  0  0  0  0  0  0  0  0  0
    5.7532   -2.2815   -0.3028 B   0  0  0  0  0  0  0  0  0  0  0  0
    6.8301   -3.2288   -1.0929 B   0  0  0  0  0  0  0  0  0  0  0  0
   -7.6564   -0.2550    0.3431 B   0  0  0  0  0  0  0  0  0  0  0  0
   -6.0374   -0.1395    0.1913 B   0  0  0  0  0  0  0  0  0  0  0  0
   -4.4316   -0.5357    0.2239 B   0  0  0  0  0  0  0  0  0  0  0  0
   -2.7379   -0.6604    0.3290 B   0  0  0  0  0  0  0  0  0  0  0  0
   -1.0518   -0.9157    0.6419 B   0  0  0  0  0  0  0  0  0  0  0  0
    0.5171   -1.1722    0.7257 B   0  0  0  0  0  0  0  0  0  0  0  0
    3.1231   -1.4831   -0.0635 B   0  0  0  0  0  0  0  0  0  0  0  0
    4.7001   -1.1340    0.3402 B   0  0  0  0  0  0  0  0  0  0  0  0
    6.2667   -0.7872    0.2517 B   0  0  0  0  0  0  0  0  0  0  0  0
    7.6720   -0.3517    1.0327 B   0  0  0  0  0  0  0  0  0  0  0  0
   -6.9181    1.2121    0.1915 B   0  0  0  0  0  0  0  0  0  0  0  0
   -3.4184    0.7801    0.0809 B   0  0  0  0  0  0  0  0  0  0  0  0
   -1.6542    0.5326    0.1239 B   0  0  0  0  0  0  0  0  0  0  0  0
    1.8622   -0.4037    0.3246 B   0  0  0  0  0  0  0  0  0  0  0  0
    3.5847   -0.1504    0.7852 B   0  0  0  0  0  0  0  0  0  0  0  0
    6.9910    0.6111   -0.1068 B   0  0  0  0  0  0  0  0  0  0  0  0
    8.3074    1.0629    0.6316 B   0  0  0  0  0  0  0  0  0  0  0  0
   -7.6194    2.8040    0.2986 B   0  0  0  0  0  0  0  0  0  0  0  0
   -6.1238    2.5185   -0.1765 B   0  0  0  0  0  0  0  0  0  0  0  0
   -3.5886    2.3277   -0.2368 B   0  0  0  0  0  0  0  0  0  0  0  0
   -0.9061    1.8195   -0.4198 B   0  0  0  0  0  0  0  0  0  0  0  0
    1.6234    1.0199   -0.4108 B   0  0  0  0  0  0  0  0  0  0  0  0
    3.0108    1.3090    0.5297 B   0  0  0  0  0  0  0  0  0  0  0  0
    6.3729    1.8582   -0.9160 B   0  0  0  0  0  0  0  0  0  0  0  0
   -6.5277    4.0456   -0.1608 B   0  0  0  0  0  0  0  0  0  0  0  0
   -4.8736    3.4948   -0.3884 B   0  0  0  0  0  0  0  0  0  0  0  0
   -3.4155    3.8801   -0.6064 B   0  0  0  0  0  0  0  0  0  0  0  0
   -2.0235    3.2206   -0.6767 B   0  0  0  0  0  0  0  0  0  0  0  0
   -0.4974    3.2796   -0.8970 B   0  0  0  0  0  0  0  0  0  0  0  0
    0.7107    2.3324   -0.7457 B   0  0  0  0  0  0  0  0  0  0  0  0
    2.3353    2.4781   -0.4754 B   0  0  0  0  0  0  0  0  0  0  0  0
    3.8161    2.6195   -0.0941 B   0  0  0  0  0  0  0  0  0  0  0  0
    5.3698    2.8646   -0.1489 B   0  0  0  0  0  0  0  0  0  0  0  0
    6.0551    4.0800    0.6312 B   0  0  0  0  0  0  0  0  0  0  0  0
    6.2041    5.1477    0.1463 H   0  0  0  0  0  0  0  0  0  0  0  0
    8.2184   -1.1210    1.7268 H   0  0  0  0  0  0  0  0  0  0  0  0
    6.6224    1.9818   -2.0674 H   0  0  0  0  0  0  0  0  0  0  0  0
   -7.0900   -5.2506   -0.7538 H   0  0  0  0  0  0  0  0  0  0  0  0
   -6.7912    5.1815   -0.2852 H   0  0  0  0  0  0  0  0  0  0  0  0
    9.1569    1.8466    0.7900 H   0  0  0  0  0  0  0  0  0  0  0  0
   -8.8277   -0.3758    0.3286 H   0  0  0  0  0  0  0  0  0  0  0  0
    6.7839   -5.8690   -1.4465 H   0  0  0  0  0  0  0  0  0  0  0  0
   -8.7247    3.0012    0.6388 H   0  0  0  0  0  0  0  0  0  0  0  0
    7.8918   -2.8835   -1.4737 H   0  0  0  0  0  0  0  0  0  0  0  0
    6.4282    3.9996    1.7485 H   0  0  0  0  0  0  0  0  0  0  0  0
   -7.2249   -5.2823    1.2187 H   0  0  0  0  0  0  0  0  0  0  0  0
  1  2  1  0  0  0  0
  2  3  1  0  0  0  0
  3  4  4  0  0  0  0
  4  5  4  0  0  0  0
  5  6  4  0  0  0  0
  6  7  4  0  0  0  0
  3  8  4  0  0  0  0
  7  8  4  0  0  0  0
  8  9  1  0  0  0  0
  9 10  1  0  0  0  0
 10 11  1  0  0  0  0
 11 12  1  0  0  0  0
 12 13  2  0  0  0  0
 12 14  1  0  0  0  0
 14 15  2  0  0  0  0
  7 16  1  0  0  0  0
 10 16  1  0  0  0  0
 15 16  1  0  0  0  0
 16 17  1  0  0  0  0
 17 18  1  0  0  0  0
 18 19  1  0  0  0  0
 19 20  1  0  0  0  0
  6 21  1  0  0  0  0
 19 21  1  0  0  0  0
  1 22  1  0  0  0  0
  1 23  1  0  0  0  0
  1 24  1  0  0  0  0
  4 25  1  0  0  0  0
  5 26  1  0  0  0  0
 10 27  1  0  0  0  0
 11 28  1  0  0  0  0
 11 29  1  0  0  0  0
 14 30  1  0  0  0  0
 15 31  1  0  0  0  0
 17 32  1  0  0  0  0
 17 33  1  0  0  0  0
 18 34  1  0  0  0  0
 18 35  1  0  0  0  0
 20 36  1  0  0  0  0
 20 37  1  0  0  0  0
 20 38  1  0  0  0  0
 21 39  1  0  0  0  0
 21 40  1  0  0  0  0
 42 43  1  0  0  0  0
 44 45  2  0  0  0  0
 46 47  2  0  0  0  0
 41 48  1  0  0  0  0
 42 48  1  0  0  0  0
 42 49  1  0  0  0  0
 48 49  1  0  0  0  0
 43 50  1  0  0  0  0
 44 51  1  0  0  0  0
 50 51  1  0  0  0  0
 45 52  1  0  0  0  0
 46 52  1  0  0  0  0
 46 53  1  0  0  0  0
 52 53  1  0  0  0  0
 46 54  1  0  0  0  0
 47 54  1  0  0  0  0
 53 54  1  0  0  0  0
 49 55  1  0  0  0  0
 49 56  1  0  0  0  0
 55 56  1  0  0  0  0
 42 57  1  0  0  0  0
 43 57  1  0  0  0  0
 56 57  1  0  0  0  0
 43 58  1  0  0  0  0
 50 58  1  0  0  0  0
 57 58  1  0  0  0  0
 50 59  1  0  0  0  0
 51 59  1  0  0  0  0
 58 59  1  0  0  0  0
 44 60  1  0  0  0  0
 51 60  1  0  0  0  0
 59 60  1  0  0  0  0
 45 61  1  0  0  0  0
 52 61  1  0  0  0  0
 52 62  1  0  0  0  0
 53 62  1  0  0  0  0
 61 62  1  0  0  0  0
 53 63  1  0  0  0  0
 62 63  1  0  0  0  0
 63 64  1  0  0  0  0
 55 65  1  0  0  0  0
 56 65  1  0  0  0  0
 57 66  1  0  0  0  0
 58 66  1  0  0  0  0
 58 67  1  0  0  0  0
 59 67  1  0  0  0  0
 66 67  1  0  0  0  0
 60 68  1  0  0  0  0
 61 68  1  0  0  0  0
 61 69  1  0  0  0  0
 62 69  1  0  0  0  0
 68 69  1  0  0  0  0
 63 70  1  0  0  0  0
 64 70  1  0  0  0  0
 64 71  1  0  0  0  0
 70 71  1  0  0  0  0
 65 72  1  0  0  0  0
 65 73  1  0  0  0  0
 72 73  1  0  0  0  0
 66 74  1  0  0  0  0
 67 75  1  0  0  0  0
 68 76  1  0  0  0  0
 69 77  1  0  0  0  0
 76 77  1  0  0  0  0
 70 78  1  0  0  0  0
 72 79  1  0  0  0  0
 73 79  1  0  0  0  0
 73 80  1  0  0  0  0
 74 80  1  0  0  0  0
 79 80  1  0  0  0  0
 74 81  1  0  0  0  0
 80 81  1  0  0  0  0
 74 82  1  0  0  0  0
 75 82  1  0  0  0  0
 81 82  1  0  0  0  0
 75 83  1  0  0  0  0
 82 83  1  0  0  0  0
 75 84  1  0  0  0  0
 76 84  1  0  0  0  0
 83 84  1  0  0  0  0
 76 85  1  0  0  0  0
 77 85  1  0  0  0  0
 84 85  1  0  0  0  0
 77 86  1  0  0  0  0
 85 86  1  0  0  0  0
 78 87  1  0  0  0  0
 86 87  1  0  0  0  0
 87 88  1  0  0  0  0
 88 89  1  0  0  0  0
 64 90  1  0  0  0  0
 78 91  1  0  0  0  0
 41 92  1  0  0  0  0
 79 93  1  0  0  0  0
 71 94  1  0  0  0  0
 55 95  1  0  0  0  0
 47 96  1  0  0  0  0
 72 97  1  0  0  0  0
 54 98  1  0  0  0  0
 88 99  1  0  0  0  0
 41100  1  0  0  0  0
M  END
