 xtb: 6.7.1pre (5071a88)
          08312620253D

100132  0     0  0            999 V2000
    4.8240   -1.5816    2.3383 C   0  0  0  0  0  0  0  0  0  0  0  0
    3.8718   -0.5524    2.5661 O   0  0  0  0  0  0  0  0  0  0  0  0
    2.6857   -0.9208    3.1292 C   0  0  0  0  0  0  0  0  0  0  0  0
    2.3351   -2.2038    3.5553 C   0  0  0  0  0  0  0  0  0  0  0  0
    1.0399   -2.4735    4.0452 C   0  0  0  0  0  0  0  0  0  0  0  0
    0.0787   -1.4576    4.1681 C   0  0  0  0  0  0  0  0  0  0  0  0
    0.4798   -0.1661    3.8717 C   0  0  0  0  0  0  0  0  0  0  0  0
    1.7318    0.0720    3.2872 C   0  0  0  0  0  0  0  0  0  0  0  0
    1.8455    1.3628    2.7861 O   0  0  0  0  0  0  0  0  0  0  0  0
    0.8399    2.0270    3.5563 C   0  0  0  0  0  0  0  0  0  0  0  0
    0.3764    3.3800    3.0585 C   0  0  0  0  0  0  0  0  0  0  0  0
   -0.6331    3.9174    4.0658 C   0  0  0  0  0  0  0  0  0  0  0  0
   -0.9850    5.0946    4.0708 O   0  0  0  0  0  0  0  0  0  0  0  0
   -1.2281    2.9792    5.0779 C   0  0  0  0  0  0  0  0  0  0  0  0
   -1.0774    1.6461    4.9576 C   0  0  0  0  0  0  0  0  0  0  0  0
   -0.3564    1.0646    3.7666 C   0  0  0  0  0  0  0  0  0  0  0  0
   -1.3331    0.8291    2.5932 C   0  0  0  0  0  0  0  0  0  0  0  0
   -2.5045   -0.1315    2.9234 C   0  0  0  0  0  0  0  0  0  0  0  0
   -2.1778   -1.5476    3.1893 N   0  0  0  0  0  0  0  0  0  0  0  0
   -3.4187   -2.3260    3.2703 C   0  0  0  0  0  0  0  0  0  0  0  0
   -1.3761   -1.7671    4.4094 C   0  0  0  0  0  0  0  0  0  0  0  0
    5.1543   -2.0287    3.2817 H   0  0  0  0  0  0  0  0  0  0  0  0
    4.4295   -2.3428    1.6569 H   0  0  0  0  0  0  0  0  0  0  0  0
    5.6985   -1.1290    1.8608 H   0  0  0  0  0  0  0  0  0  0  0  0
    3.0239   -3.0379    3.4687 H   0  0  0  0  0  0  0  0  0  0  0  0
    0.7733   -3.5050    4.2690 H   0  0  0  0  0  0  0  0  0  0  0  0
    1.3394    2.2243    4.5256 H   0  0  0  0  0  0  0  0  0  0  0  0
   -0.0740    3.3250    2.0635 H   0  0  0  0  0  0  0  0  0  0  0  0
    1.2282    4.0662    3.0021 H   0  0  0  0  0  0  0  0  0  0  0  0
   -1.7796    3.4376    5.8909 H   0  0  0  0  0  0  0  0  0  0  0  0
   -1.5136    0.9886    5.7017 H   0  0  0  0  0  0  0  0  0  0  0  0
   -0.8046    0.4551    1.7051 H   0  0  0  0  0  0  0  0  0  0  0  0
   -1.7847    1.7816    2.2867 H   0  0  0  0  0  0  0  0  0  0  0  0
   -3.1013    0.2795    3.7479 H   0  0  0  0  0  0  0  0  0  0  0  0
   -3.1584   -0.1010    2.0408 H   0  0  0  0  0  0  0  0  0  0  0  0
   -4.0036   -2.2229    2.3494 H   0  0  0  0  0  0  0  0  0  0  0  0
   -3.1995   -3.3947    3.3753 H   0  0  0  0  0  0  0  0  0  0  0  0
   -4.0439   -2.0152    4.1151 H   0  0  0  0  0  0  0  0  0  0  0  0
   -1.4377   -2.8225    4.7081 H   0  0  0  0  0  0  0  0  0  0  0  0
   -1.7646   -1.2028    5.2644 H   0  0  0  0  0  0  0  0  0  0  0  0
   -7.5000   -4.5000    0.0000 B   0  0  0  0  0  0  0  0  0  0  0  0
   -4.5000   -4.5000    0.0000 B   0  0  0  0  0  0  0  0  0  0  0  0
   -1.5000   -4.5000    0.0000 B   0  0  0  0  0  0  0  0  0  0  0  0
    1.5000   -4.5000    0.0000 B   0  0  0  0  0  0  0  0  0  0  0  0
    4.5000   -4.5000    0.0000 B   0  0  0  0  0  0  0  0  0  0  0  0
    7.5000   -4.5000    0.0000 B   0  0  0  0  0  0  0  0  0  0  0  0
   -7.5000   -3.0000    0.0000 B   0  0  0  0  0  0  0  0  0  0  0  0
   -4.5000   -3.0000    0.0000 B   0  0  0  0  0  0  0  0  0  0  0  0
   -1.5000   -3.0000    0.0000 B   0  0  0  0  0  0  0  0  0  0  0  0
    1.5000   -3.0000    0.0000 B   0  0  0  0  0  0  0  0  0  0  0  0
    4.5000   -3.0000    0.0000 B   0  0  0  0  0  0  0  0  0  0  0  0
    7.5000   -3.0000    0.0000 B   0  0  0  0  0  0  0  0  0  0  0  0
   -7.5000   -1.5000    0.0000 B   0  0  0  0  0  0  0  0  0  0  0  0
   -4.5000   -1.5000    0.0000 B   0  0  0  0  0  0  0  0  0  0  0  0
   -1.5000   -1.5000    0.0000 B   0  0  0  0  0  0  0  0  0  0  0  0
    1.5000   -1.5000    0.0000 B   0  0  0  0  0  0  0  0  0  0  0  0
    4.5000   -1.5000    0.0000 B   0  0  0  0  0  0  0  0  0  0  0  0
    7.5000   -1.5000    0.0000 B   0  0  0  0  0  0  0  0  0  0  0  0
   -7.5000    0.0000    0.0000 B   0  0  0  0  0  0  0  0  0  0  0  0
   -4.5000    0.0000    0.0000 B   0  0  0  0  0  0  0  0  0  0  0  0
   -1.5000    0.0000    0.0000 B   0  0  0  0  0  0  0  0  0  0  0  0
    1.5000    0.0000    0.0000 B   0  0  0  0  0  0  0  0  0  0  0  0
    4.5000    0.0000    0.0000 B   0  0  0  0  0  0  0  0  0  0  0  0
    7.5000    0.0000    0.0000 B   0  0  0  0  0  0  0  0  0  0  0  0
   -7.5000    1.5000    0.0000 B   0  0  0  0  0  0  0  0  0  0  0  0
   -4.5000    1.5000    0.0000 B   0  0  0  0  0  0  0  0  0  0  0  0
   -1.5000    1.5000    0.0000 B   0  0  0  0  0  0  0  0  0  0  0  0
    1.5000    1.5000    0.0000 B   0  0  0  0  0  0  0  0  0  0  0  0
    4.5000    1.5000    0.0000 B   0  0  0  0  0  0  0  0  0  0  0  0
    7.5000    1.5000    0.0000 B   0  0  0  0  0  0  0  0  0  0  0  0
   -7.5000    3.0000    0.0000 B   0  0  0  0  0  0  0  0  0  0  0  0
   -4.5000    3.0000    0.0000 B   0  0  0  0  0  0  0  0  0  0  0  0
   -1.5000    3.0000    0.0000 B   0  0  0  0  0  0  0  0  0  0  0  0
    1.5000    3.0000    0.0000 B   0  0  0  0  0  0  0  0  0  0  0  0
    4.5000    3.0000    0.0000 B   0  0  0  0  0  0  0  0  0  0  0  0
    7.5000    3.0000    0.0000 B   0  0  0  0  0  0  0  0  0  0  0  0
   -7.5000    4.5000    0.0000 B   0  0  0  0  0  0  0  0  0  0  0  0
   -4.5000    4.5000    0.0000 B   0  0  0  0  0  0  0  0  0  0  0  0
   -1.5000    4.5000    0.0000 B   0  0  0  0  0  0  0  0  0  0  0  0
    1.5000    4.5000    0.0000 B   0  0  0  0  0  0  0  0  0  0  0  0
    4.5000    4.5000    0.0000 B   0  0  0  0  0  0  0  0  0  0  0  0
    7.5000    4.5000    0.0000 B   0  0  0  0  0  0  0  0  0  0  0  0
   -6.0000   -3.7500    0.0000 B   0  0  0  0  0  0  0  0  0  0  0  0
   -3.0000   -3.7500    0.0000 B   0  0  0  0  0  0  0  0  0  0  0  0
    0.0000   -3.7500    0.0000 B   0  0  0  0  0  0  0  0  0  0  0  0
    3.0000   -3.7500    0.0000 B   0  0  0  0  0  0  0  0  0  0  0  0
    6.0000   -3.7500    0.0000 B   0  0  0  0  0  0  0  0  0  0  0  0
   -6.0000    3.7500    0.0000 B   0  0  0  0  0  0  0  0  0  0  0  0
   -3.0000    3.7500    0.0000 B   0  0  0  0  0  0  0  0  0  0  0  0
    0.0000    3.7500    0.0000 B   0  0  0  0  0  0  0  0  0  0  0  0
    3.0000    3.7500    0.0000 B   0  0  0  0  0  0  0  0  0  0  0  0
    6.0000    3.7500    0.0000 B   0  0  0  0  0  0  0  0  0  0  0  0
   -6.0000    0.0000    0.0000 B   0  0  0  0  0  0  0  0  0  0  0  0
   -8.6000   -4.5000    0.0000 H   0  0  0  0  0  0  0  0  0  0  0  0
   -8.6000   -1.5000    0.0000 H   0  0  0  0  0  0  0  0  0  0  0  0
   -8.6000    1.5000    0.0000 H   0  0  0  0  0  0  0  0  0  0  0  0
   -8.6000    4.5000    0.0000 H   0  0  0  0  0  0  0  0  0  0  0  0
    8.6000   -4.5000    0.0000 H   0  0  0  0  0  0  0  0  0  0  0  0
    8.6000   -1.5000    0.0000 H   0  0  0  0  0  0  0  0  0  0  0  0
    8.6000    1.5000    0.0000 H   0  0  0  0  0  0  0  0  0  0  0  0
  1  2  1  0  0  0  0
  2  3  1  0  0  0  0
  3  4  4  0  0  0  0
  4  5  4  0  0  0  0
  5  6  4  0  0  0  0
  6  7  4  0  0  0  0
  3  8  4  0  0  0  0
  7  8  4  0  0  0  0
  8  9  1  0  0  0  0
  9 10  1  0  0  0  0
 10 11  1  0  0  0  0
 11 12  1  0  0  0  0
 12 13  2  0  0  0  0
 12 14  1  0  0  0  0
 14 15  2  0  0  0  0
  7 16  1  0  0  0  0
 10 16  1  0  0  0  0
 15 16  1  0  0  0  0
 16 17  1  0  0  0  0
 17 18  1  0  0  0  0
 18 19  1  0  0  0  0
 19 20  1  0  0  0  0
  6 21  1  0  0  0  0
 19 21  1  0  0  0  0
  1 22  1  0  0  0  0
  1 23  1  0  0  0  0
  1 24  1  0  0  0  0
  4 25  1  0  0  0  0
  5 26  1  0  0  0  0
 10 27  1  0  0  0  0
 11 28  1  0  0  0  0
 11 29  1  0  0  0  0
 14 30  1  0  0  0  0
 15 31  1  0  0  0  0
 17 32  1  0  0  0  0
 17 33  1  0  0  0  0
 18 34  1  0  0  0  0
 18 35  1  0  0  0  0
 20 36  1  0  0  0  0
 20 37  1  0  0  0  0
 20 38  1  0  0  0  0
 21 39  1  0  0  0  0
 21 40  1  0  0  0  0
 41 47  1  0  0  0  0
 42 48  1  0  0  0  0
 43 49  1  0  0  0  0
 44 50  1  0  0  0  0
 45 51  1  0  0  0  0
 46 52  1  0  0  0  0
 47 53  1  0  0  0  0
 48 54  1  0  0  0  0
 49 55  1  0  0  0  0
 50 56  1  0  0  0  0
 51 57  1  0  0  0  0
 52 58  1  0  0  0  0
 53 59  1  0  0  0  0
 54 60  1  0  0  0  0
 55 61  2  0  0  0  0
 56 62  2  0  0  0  0
 57 63  2  0  0  0  0
 58 64  1  0  0  0  0
 59 65  1  0  0  0  0
 60 66  1  0  0  0  0
 61 67  2  0  0  0  0
 62 68  2  0  0  0  0
 63 69  2  0  0  0  0
 64 70  2  0  0  0  0
 65 71  1  0  0  0  0
 66 72  1  0  0  0  0
 67 73  1  0  0  0  0
 68 74  1  0  0  0  0
 69 75  1  0  0  0  0
 70 76  1  0  0  0  0
 71 77  1  0  0  0  0
 72 78  1  0  0  0  0
 73 79  1  0  0  0  0
 74 80  1  0  0  0  0
 75 81  1  0  0  0  0
 76 82  2  0  0  0  0
 41 83  1  0  0  0  0
 42 83  1  0  0  0  0
 47 83  1  0  0  0  0
 48 83  1  0  0  0  0
 42 84  1  0  0  0  0
 43 84  1  0  0  0  0
 48 84  1  0  0  0  0
 49 84  1  0  0  0  0
 43 85  1  0  0  0  0
 44 85  1  0  0  0  0
 49 85  1  0  0  0  0
 50 85  1  0  0  0  0
 44 86  1  0  0  0  0
 45 86  1  0  0  0  0
 50 86  1  0  0  0  0
 51 86  1  0  0  0  0
 45 87  1  0  0  0  0
 46 87  1  0  0  0  0
 51 87  1  0  0  0  0
 52 87  1  0  0  0  0
 71 88  1  0  0  0  0
 72 88  1  0  0  0  0
 77 88  1  0  0  0  0
 78 88  1  0  0  0  0
 72 89  1  0  0  0  0
 73 89  1  0  0  0  0
 78 89  1  0  0  0  0
 79 89  1  0  0  0  0
 73 90  1  0  0  0  0
 74 90  1  0  0  0  0
 79 90  1  0  0  0  0
 80 90  1  0  0  0  0
 74 91  1  0  0  0  0
 75 91  1  0  0  0  0
 80 91  1  0  0  0  0
 81 91  1  0  0  0  0
 75 92  1  0  0  0  0
 76 92  1  0  0  0  0
 81 92  1  0  0  0  0
 82 92  1  0  0  0  0
 53 93  1  0  0  0  0
 54 93  1  0  0  0  0
 59 93  1  0  0  0  0
 60 93  1  0  0  0  0
 65 93  1  0  0  0  0
 66 93  1  0  0  0  0
 41 94  1  0  0  0  0
 53 95  1  0  0  0  0
 65 96  1  0  0  0  0
 77 97  1  0  0  0  0
 46 98  1  0  0  0  0
 58 99  1  0  0  0  0
 70100  1  0  0  0  0
M  END
