 xtb: 6.7.1pre (5071a88)
          09012620283D

 95133  0     0  0            999 V2000
    4.8240   -1.5816    6.8570 C   0  0  0  0  0  0  0  0  0  0  0  0
    3.8718   -0.5524    7.0848 O   0  0  0  0  0  0  0  0  0  0  0  0
    2.6857   -0.9208    7.6479 C   0  0  0  0  0  0  0  0  0  0  0  0
    2.3351   -2.2038    8.0740 C   0  0  0  0  0  0  0  0  0  0  0  0
    1.0399   -2.4735    8.5639 C   0  0  0  0  0  0  0  0  0  0  0  0
    0.0787   -1.4576    8.6868 C   0  0  0  0  0  0  0  0  0  0  0  0
    0.4798   -0.1661    8.3904 C   0  0  0  0  0  0  0  0  0  0  0  0
    1.7318    0.0720    7.8059 C   0  0  0  0  0  0  0  0  0  0  0  0
    1.8455    1.3628    7.3049 O   0  0  0  0  0  0  0  0  0  0  0  0
    0.8399    2.0270    8.0750 C   0  0  0  0  0  0  0  0  0  0  0  0
    0.3764    3.3800    7.5772 C   0  0  0  0  0  0  0  0  0  0  0  0
   -0.6331    3.9174    8.5845 C   0  0  0  0  0  0  0  0  0  0  0  0
   -0.9850    5.0946    8.5895 O   0  0  0  0  0  0  0  0  0  0  0  0
   -1.2281    2.9792    9.5966 C   0  0  0  0  0  0  0  0  0  0  0  0
   -1.0774    1.6461    9.4764 C   0  0  0  0  0  0  0  0  0  0  0  0
   -0.3564    1.0646    8.2853 C   0  0  0  0  0  0  0  0  0  0  0  0
   -1.3331    0.8291    7.1119 C   0  0  0  0  0  0  0  0  0  0  0  0
   -2.5045   -0.1315    7.4421 C   0  0  0  0  0  0  0  0  0  0  0  0
   -2.1778   -1.5476    7.7080 N   0  0  0  0  0  0  0  0  0  0  0  0
   -3.4187   -2.3260    7.7890 C   0  0  0  0  0  0  0  0  0  0  0  0
   -1.3761   -1.7671    8.9281 C   0  0  0  0  0  0  0  0  0  0  0  0
    5.1543   -2.0287    7.8004 H   0  0  0  0  0  0  0  0  0  0  0  0
    4.4295   -2.3428    6.1757 H   0  0  0  0  0  0  0  0  0  0  0  0
    5.6985   -1.1290    6.3795 H   0  0  0  0  0  0  0  0  0  0  0  0
    3.0239   -3.0379    7.9874 H   0  0  0  0  0  0  0  0  0  0  0  0
    0.7733   -3.5050    8.7877 H   0  0  0  0  0  0  0  0  0  0  0  0
    1.3394    2.2243    9.0444 H   0  0  0  0  0  0  0  0  0  0  0  0
   -0.0740    3.3250    6.5822 H   0  0  0  0  0  0  0  0  0  0  0  0
    1.2282    4.0662    7.5209 H   0  0  0  0  0  0  0  0  0  0  0  0
   -1.7796    3.4376   10.4096 H   0  0  0  0  0  0  0  0  0  0  0  0
   -1.5136    0.9886   10.2204 H   0  0  0  0  0  0  0  0  0  0  0  0
   -0.8046    0.4551    6.2239 H   0  0  0  0  0  0  0  0  0  0  0  0
   -1.7847    1.7816    6.8055 H   0  0  0  0  0  0  0  0  0  0  0  0
   -3.1013    0.2795    8.2667 H   0  0  0  0  0  0  0  0  0  0  0  0
   -3.1584   -0.1010    6.5595 H   0  0  0  0  0  0  0  0  0  0  0  0
   -4.0036   -2.2229    6.8681 H   0  0  0  0  0  0  0  0  0  0  0  0
   -3.1995   -3.3947    7.8940 H   0  0  0  0  0  0  0  0  0  0  0  0
   -4.0439   -2.0152    8.6339 H   0  0  0  0  0  0  0  0  0  0  0  0
   -1.4377   -2.8225    9.2269 H   0  0  0  0  0  0  0  0  0  0  0  0
   -1.7646   -1.2028    9.7831 H   0  0  0  0  0  0  0  0  0  0  0  0
   -4.7806   -2.6045    0.3173 B   0  0  0  0  0  0  0  0  0  0  0  0
   -4.5695   -1.3567   -0.6480 B   0  0  0  0  0  0  0  0  0  0  0  0
   -4.4639   -0.2474   -1.8829 B   0  0  0  0  0  0  0  0  0  0  0  0
   -3.3965   -2.6620   -0.5028 B   0  0  0  0  0  0  0  0  0  0  0  0
   -3.0380    0.1776   -1.4048 B   0  0  0  0  0  0  0  0  0  0  0  0
   -4.3909    0.3426   -0.1924 B   0  0  0  0  0  0  0  0  0  0  0  0
   -5.0310    1.4031    0.8192 B   0  0  0  0  0  0  0  0  0  0  0  0
   -4.6201    2.9864    0.9976 B   0  0  0  0  0  0  0  0  0  0  0  0
   -2.8089    0.5128    0.1995 B   0  0  0  0  0  0  0  0  0  0  0  0
   -3.2186    3.2275    1.7932 B   0  0  0  0  0  0  0  0  0  0  0  0
   -2.1611   -3.7758   -0.5843 B   0  0  0  0  0  0  0  0  0  0  0  0
   -1.8769   -2.2481   -0.9334 B   0  0  0  0  0  0  0  0  0  0  0  0
   -1.6972   -0.6133   -0.8358 B   0  0  0  0  0  0  0  0  0  0  0  0
   -0.5844   -3.2190   -0.8350 B   0  0  0  0  0  0  0  0  0  0  0  0
   -0.2198   -0.1484   -0.3118 B   0  0  0  0  0  0  0  0  0  0  0  0
   -1.3950    0.0358    0.8521 B   0  0  0  0  0  0  0  0  0  0  0  0
   -1.7757    1.6621    0.7592 B   0  0  0  0  0  0  0  0  0  0  0  0
   -1.8975    3.2370    0.8826 B   0  0  0  0  0  0  0  0  0  0  0  0
   -0.2153    1.0372    1.0697 B   0  0  0  0  0  0  0  0  0  0  0  0
   -0.7521    4.3480    0.5584 B   0  0  0  0  0  0  0  0  0  0  0  0
    0.8265   -4.1129   -0.7400 B   0  0  0  0  0  0  0  0  0  0  0  0
    0.9251   -2.5054   -0.7497 B   0  0  0  0  0  0  0  0  0  0  0  0
    1.2144   -0.9490   -0.5870 B   0  0  0  0  0  0  0  0  0  0  0  0
    2.2007   -3.4026   -0.1682 B   0  0  0  0  0  0  0  0  0  0  0  0
    2.6220   -0.1957   -0.2930 B   0  0  0  0  0  0  0  0  0  0  0  0
    1.2341    0.5516    0.1426 B   0  0  0  0  0  0  0  0  0  0  0  0
    1.1248    2.0009    1.0430 B   0  0  0  0  0  0  0  0  0  0  0  0
    0.5366    3.4372    0.6180 B   0  0  0  0  0  0  0  0  0  0  0  0
    2.4580    1.6726    0.0875 B   0  0  0  0  0  0  0  0  0  0  0  0
    1.2136    3.0171   -0.8530 B   0  0  0  0  0  0  0  0  0  0  0  0
    3.2202   -3.8508    1.1044 B   0  0  0  0  0  0  0  0  0  0  0  0
    3.6240   -2.6535    0.0637 B   0  0  0  0  0  0  0  0  0  0  0  0
    4.0250   -1.1219   -0.2366 B   0  0  0  0  0  0  0  0  0  0  0  0
    4.4174   -2.8355    1.4203 B   0  0  0  0  0  0  0  0  0  0  0  0
    5.3636   -0.2419   -0.6898 B   0  0  0  0  0  0  0  0  0  0  0  0
    4.1041    0.5310   -0.0135 B   0  0  0  0  0  0  0  0  0  0  0  0
    4.0181    2.3218   -0.0338 B   0  0  0  0  0  0  0  0  0  0  0  0
    2.8218    3.0968   -0.9129 B   0  0  0  0  0  0  0  0  0  0  0  0
    5.4220    1.4583   -0.1853 B   0  0  0  0  0  0  0  0  0  0  0  0
    4.2961    3.5501   -1.0140 B   0  0  0  0  0  0  0  0  0  0  0  0
   -5.1687   -3.0949    1.3107 H   0  0  0  0  0  0  0  0  0  0  0  0
   -5.7161   -2.0764   -0.3935 H   0  0  0  0  0  0  0  0  0  0  0  0
   -5.2640   -0.1207   -2.7417 H   0  0  0  0  0  0  0  0  0  0  0  0
   -5.7711    1.0074    1.6646 H   0  0  0  0  0  0  0  0  0  0  0  0
   -5.3645    3.8431    0.6720 H   0  0  0  0  0  0  0  0  0  0  0  0
   -3.2343    3.2250    2.9757 H   0  0  0  0  0  0  0  0  0  0  0  0
   -2.3593   -4.9262   -0.4732 H   0  0  0  0  0  0  0  0  0  0  0  0
   -0.8965    5.4755    0.2443 H   0  0  0  0  0  0  0  0  0  0  0  0
    0.8223   -5.2498   -1.0233 H   0  0  0  0  0  0  0  0  0  0  0  0
    0.5537    2.6943   -1.7837 H   0  0  0  0  0  0  0  0  0  0  0  0
    2.9703   -4.8176    1.7172 H   0  0  0  0  0  0  0  0  0  0  0  0
    5.2631   -2.5125    2.1565 H   0  0  0  0  0  0  0  0  0  0  0  0
    6.3848   -0.6467   -1.0956 H   0  0  0  0  0  0  0  0  0  0  0  0
    6.5032    1.8382    0.0650 H   0  0  0  0  0  0  0  0  0  0  0  0
    5.1389    4.2524   -1.4154 H   0  0  0  0  0  0  0  0  0  0  0  0
  1  2  1  0  0  0  0
  2  3  1  0  0  0  0
  3  4  4  0  0  0  0
  4  5  4  0  0  0  0
  5  6  4  0  0  0  0
  6  7  4  0  0  0  0
  3  8  4  0  0  0  0
  7  8  4  0  0  0  0
  8  9  1  0  0  0  0
  9 10  1  0  0  0  0
 10 11  1  0  0  0  0
 11 12  1  0  0  0  0
 12 13  2  0  0  0  0
 12 14  1  0  0  0  0
 14 15  2  0  0  0  0
  7 16  1  0  0  0  0
 10 16  1  0  0  0  0
 15 16  1  0  0  0  0
 16 17  1  0  0  0  0
 17 18  1  0  0  0  0
 18 19  1  0  0  0  0
 19 20  1  0  0  0  0
  6 21  1  0  0  0  0
 19 21  1  0  0  0  0
  1 22  1  0  0  0  0
  1 23  1  0  0  0  0
  1 24  1  0  0  0  0
  4 25  1  0  0  0  0
  5 26  1  0  0  0  0
 10 27  1  0  0  0  0
 11 28  1  0  0  0  0
 11 29  1  0  0  0  0
 14 30  1  0  0  0  0
 15 31  1  0  0  0  0
 17 32  1  0  0  0  0
 17 33  1  0  0  0  0
 18 34  1  0  0  0  0
 18 35  1  0  0  0  0
 20 36  1  0  0  0  0
 20 37  1  0  0  0  0
 20 38  1  0  0  0  0
 21 39  1  0  0  0  0
 21 40  1  0  0  0  0
 41 42  1  0  0  0  0
 42 43  1  0  0  0  0
 41 44  1  0  0  0  0
 42 44  1  0  0  0  0
 43 45  1  0  0  0  0
 42 46  1  0  0  0  0
 43 46  1  0  0  0  0
 45 46  1  0  0  0  0
 46 47  1  0  0  0  0
 47 48  1  0  0  0  0
 45 49  1  0  0  0  0
 46 49  1  0  0  0  0
 48 50  1  0  0  0  0
 44 51  1  0  0  0  0
 44 52  1  0  0  0  0
 51 52  1  0  0  0  0
 45 53  1  0  0  0  0
 49 53  1  0  0  0  0
 52 53  1  0  0  0  0
 51 54  1  0  0  0  0
 52 54  1  0  0  0  0
 53 55  1  0  0  0  0
 49 56  1  0  0  0  0
 53 56  1  0  0  0  0
 55 56  1  0  0  0  0
 49 57  1  0  0  0  0
 56 57  1  0  0  0  0
 50 58  1  0  0  0  0
 57 58  1  0  0  0  0
 55 59  1  0  0  0  0
 56 59  1  0  0  0  0
 57 59  1  0  0  0  0
 58 60  1  0  0  0  0
 54 61  1  0  0  0  0
 54 62  1  0  0  0  0
 61 62  1  0  0  0  0
 55 63  1  0  0  0  0
 62 63  1  0  0  0  0
 61 64  1  0  0  0  0
 62 64  1  0  0  0  0
 63 65  1  0  0  0  0
 55 66  1  0  0  0  0
 59 66  1  0  0  0  0
 63 66  1  0  0  0  0
 65 66  1  0  0  0  0
 59 67  1  0  0  0  0
 66 67  1  0  0  0  0
 60 68  1  0  0  0  0
 67 68  1  0  0  0  0
 65 69  1  0  0  0  0
 66 69  1  0  0  0  0
 67 69  1  0  0  0  0
 68 70  1  0  0  0  0
 64 71  1  0  0  0  0
 64 72  1  0  0  0  0
 71 72  1  0  0  0  0
 65 73  1  0  0  0  0
 72 73  1  0  0  0  0
 71 74  1  0  0  0  0
 72 74  1  0  0  0  0
 73 75  1  0  0  0  0
 65 76  1  0  0  0  0
 73 76  1  0  0  0  0
 75 76  1  0  0  0  0
 69 77  1  0  0  0  0
 76 77  1  0  0  0  0
 69 78  1  0  0  0  0
 70 78  1  0  0  0  0
 77 78  1  0  0  0  0
 75 79  1  0  0  0  0
 76 79  1  0  0  0  0
 77 79  1  0  0  0  0
 77 80  1  0  0  0  0
 78 80  1  0  0  0  0
 41 81  1  0  0  0  0
 41 82  1  0  0  0  0
 42 82  1  0  0  0  0
 43 83  1  0  0  0  0
 47 84  1  0  0  0  0
 48 85  1  0  0  0  0
 50 86  1  0  0  0  0
 51 87  1  0  0  0  0
 60 88  1  0  0  0  0
 61 89  1  0  0  0  0
 70 90  1  0  0  0  0
 71 91  1  0  0  0  0
 74 92  1  0  0  0  0
 75 93  1  0  0  0  0
 79 94  1  0  0  0  0
 80 95  1  0  0  0  0
M  END
