 xtb: 6.7.1 (edcfbbe)
          09242616493D

 60110  0     0  0            999 V2000
   -5.8586   -3.3804   -0.0000 B   0  0  0  0  0  0  0  0  0  0  0  0
   -5.8585   -1.6916    0.0000 B   0  0  0  0  0  0  0  0  0  0  0  0
   -4.3953   -4.2247    0.0000 B   0  0  0  0  0  0  0  0  0  0  0  0
   -4.3971   -2.5348    0.0000 B   0  0  0  0  0  0  0  0  0  0  0  0
   -4.3958   -0.8415    0.0000 B   0  0  0  0  0  0  0  0  0  0  0  0
   -5.8585    1.6916   -0.0000 B   0  0  0  0  0  0  0  0  0  0  0  0
   -5.8586    3.3804    0.0000 B   0  0  0  0  0  0  0  0  0  0  0  0
   -4.3958    0.8415    0.0000 B   0  0  0  0  0  0  0  0  0  0  0  0
   -4.3971    2.5348   -0.0000 B   0  0  0  0  0  0  0  0  0  0  0  0
   -4.3953    4.2247   -0.0000 B   0  0  0  0  0  0  0  0  0  0  0  0
   -2.9279   -3.3832    0.0000 B   0  0  0  0  0  0  0  0  0  0  0  0
   -2.9289   -1.6872    0.0000 B   0  0  0  0  0  0  0  0  0  0  0  0
   -1.4655   -4.2244    0.0000 B   0  0  0  0  0  0  0  0  0  0  0  0
   -1.4661   -2.5351    0.0000 B   0  0  0  0  0  0  0  0  0  0  0  0
   -1.4657   -0.8430    0.0000 B   0  0  0  0  0  0  0  0  0  0  0  0
   -2.9289    1.6872    0.0000 B   0  0  0  0  0  0  0  0  0  0  0  0
   -2.9279    3.3832   -0.0000 B   0  0  0  0  0  0  0  0  0  0  0  0
   -1.4657    0.8430    0.0000 B   0  0  0  0  0  0  0  0  0  0  0  0
   -1.4661    2.5351   -0.0000 B   0  0  0  0  0  0  0  0  0  0  0  0
   -1.4655    4.2244    0.0000 B   0  0  0  0  0  0  0  0  0  0  0  0
    0.0007   -3.3828   -0.0000 B   0  0  0  0  0  0  0  0  0  0  0  0
    0.0007   -1.6872   -0.0000 B   0  0  0  0  0  0  0  0  0  0  0  0
    1.4642   -4.2244    0.0000 B   0  0  0  0  0  0  0  0  0  0  0  0
    1.4647   -2.5351   -0.0000 B   0  0  0  0  0  0  0  0  0  0  0  0
    1.4644   -0.8430    0.0000 B   0  0  0  0  0  0  0  0  0  0  0  0
    0.0007    1.6872   -0.0000 B   0  0  0  0  0  0  0  0  0  0  0  0
    0.0007    3.3828    0.0000 B   0  0  0  0  0  0  0  0  0  0  0  0
    1.4644    0.8430    0.0000 B   0  0  0  0  0  0  0  0  0  0  0  0
    1.4647    2.5351    0.0000 B   0  0  0  0  0  0  0  0  0  0  0  0
    1.4642    4.2244    0.0000 B   0  0  0  0  0  0  0  0  0  0  0  0
    2.9293   -3.3833    0.0000 B   0  0  0  0  0  0  0  0  0  0  0  0
    2.9302   -1.6873   -0.0000 B   0  0  0  0  0  0  0  0  0  0  0  0
    4.3940   -4.2246    0.0000 B   0  0  0  0  0  0  0  0  0  0  0  0
    4.3958   -2.5347   -0.0000 B   0  0  0  0  0  0  0  0  0  0  0  0
    4.3944   -0.8415    0.0000 B   0  0  0  0  0  0  0  0  0  0  0  0
    2.9302    1.6873    0.0000 B   0  0  0  0  0  0  0  0  0  0  0  0
    2.9293    3.3833    0.0000 B   0  0  0  0  0  0  0  0  0  0  0  0
    4.3944    0.8415   -0.0000 B   0  0  0  0  0  0  0  0  0  0  0  0
    4.3958    2.5347    0.0000 B   0  0  0  0  0  0  0  0  0  0  0  0
    4.3940    4.2246    0.0000 B   0  0  0  0  0  0  0  0  0  0  0  0
    5.8600   -3.3804   -0.0000 B   0  0  0  0  0  0  0  0  0  0  0  0
    5.8599   -1.6916    0.0000 B   0  0  0  0  0  0  0  0  0  0  0  0
    5.8599    1.6916   -0.0000 B   0  0  0  0  0  0  0  0  0  0  0  0
    5.8600    3.3804   -0.0000 B   0  0  0  0  0  0  0  0  0  0  0  0
   -6.8687   -3.9847   -0.0000 H   0  0  0  0  0  0  0  0  0  0  0  0
   -6.8816   -1.1232    0.0000 H   0  0  0  0  0  0  0  0  0  0  0  0
   -4.3996   -5.4023    0.0000 H   0  0  0  0  0  0  0  0  0  0  0  0
   -6.8816    1.1232   -0.0000 H   0  0  0  0  0  0  0  0  0  0  0  0
   -6.8687    3.9847    0.0000 H   0  0  0  0  0  0  0  0  0  0  0  0
   -4.3996    5.4023   -0.0000 H   0  0  0  0  0  0  0  0  0  0  0  0
   -1.4658   -5.4001   -0.0000 H   0  0  0  0  0  0  0  0  0  0  0  0
   -1.4658    5.4001    0.0000 H   0  0  0  0  0  0  0  0  0  0  0  0
    1.4662   -5.4001    0.0000 H   0  0  0  0  0  0  0  0  0  0  0  0
    1.4662    5.4001    0.0000 H   0  0  0  0  0  0  0  0  0  0  0  0
    4.3999   -5.4023    0.0000 H   0  0  0  0  0  0  0  0  0  0  0  0
    4.3999    5.4023    0.0000 H   0  0  0  0  0  0  0  0  0  0  0  0
    6.8688   -3.9868   -0.0000 H   0  0  0  0  0  0  0  0  0  0  0  0
    6.8820   -1.1216    0.0000 H   0  0  0  0  0  0  0  0  0  0  0  0
    6.8820    1.1216   -0.0000 H   0  0  0  0  0  0  0  0  0  0  0  0
    6.8688    3.9868   -0.0000 H   0  0  0  0  0  0  0  0  0  0  0  0
  1  2  1  0  0  0  0
  1  3  1  0  0  0  0
  1  4  1  0  0  0  0
  2  4  1  0  0  0  0
  3  4  1  0  0  0  0
  2  5  1  0  0  0  0
  4  5  1  0  0  0  0
  6  7  1  0  0  0  0
  5  8  1  0  0  0  0
  6  8  1  0  0  0  0
  6  9  1  0  0  0  0
  7  9  1  0  0  0  0
  8  9  1  0  0  0  0
  7 10  1  0  0  0  0
  9 10  1  0  0  0  0
  3 11  1  0  0  0  0
  4 11  1  0  0  0  0
  4 12  1  0  0  0  0
  5 12  1  0  0  0  0
 11 12  1  0  0  0  0
 11 13  1  0  0  0  0
 11 14  1  0  0  0  0
 12 14  1  0  0  0  0
 13 14  1  0  0  0  0
 12 15  1  0  0  0  0
 14 15  1  0  0  0  0
  8 16  1  0  0  0  0
  9 16  1  0  0  0  0
  9 17  1  0  0  0  0
 10 17  1  0  0  0  0
 16 17  1  0  0  0  0
 15 18  1  0  0  0  0
 16 18  1  0  0  0  0
 16 19  1  0  0  0  0
 17 19  1  0  0  0  0
 18 19  1  0  0  0  0
 17 20  1  0  0  0  0
 19 20  1  0  0  0  0
 13 21  1  0  0  0  0
 14 21  1  0  0  0  0
 14 22  1  0  0  0  0
 15 22  1  0  0  0  0
 21 22  1  0  0  0  0
 21 23  1  0  0  0  0
 21 24  1  0  0  0  0
 22 24  1  0  0  0  0
 23 24  1  0  0  0  0
 22 25  1  0  0  0  0
 24 25  1  0  0  0  0
 18 26  1  0  0  0  0
 19 26  1  0  0  0  0
 19 27  1  0  0  0  0
 20 27  1  0  0  0  0
 26 27  1  0  0  0  0
 25 28  1  0  0  0  0
 26 28  1  0  0  0  0
 26 29  1  0  0  0  0
 27 29  1  0  0  0  0
 28 29  1  0  0  0  0
 27 30  1  0  0  0  0
 29 30  1  0  0  0  0
 23 31  1  0  0  0  0
 24 31  1  0  0  0  0
 24 32  1  0  0  0  0
 25 32  1  0  0  0  0
 31 32  1  0  0  0  0
 31 33  1  0  0  0  0
 31 34  1  0  0  0  0
 32 34  1  0  0  0  0
 33 34  1  0  0  0  0
 32 35  1  0  0  0  0
 34 35  1  0  0  0  0
 28 36  1  0  0  0  0
 29 36  1  0  0  0  0
 29 37  1  0  0  0  0
 30 37  1  0  0  0  0
 36 37  1  0  0  0  0
 35 38  1  0  0  0  0
 36 38  1  0  0  0  0
 36 39  1  0  0  0  0
 37 39  1  0  0  0  0
 38 39  1  0  0  0  0
 37 40  1  0  0  0  0
 39 40  1  0  0  0  0
 33 41  1  0  0  0  0
 34 41  1  0  0  0  0
 34 42  1  0  0  0  0
 35 42  1  0  0  0  0
 41 42  1  0  0  0  0
 38 43  1  0  0  0  0
 39 43  1  0  0  0  0
 39 44  1  0  0  0  0
 40 44  1  0  0  0  0
 43 44  1  0  0  0  0
  1 45  1  0  0  0  0
  2 46  1  0  0  0  0
  3 47  1  0  0  0  0
  6 48  1  0  0  0  0
  7 49  1  0  0  0  0
 10 50  1  0  0  0  0
 13 51  1  0  0  0  0
 20 52  1  0  0  0  0
 23 53  1  0  0  0  0
 30 54  1  0  0  0  0
 33 55  1  0  0  0  0
 40 56  1  0  0  0  0
 41 57  1  0  0  0  0
 42 58  1  0  0  0  0
 43 59  1  0  0  0  0
 44 60  1  0  0  0  0
M  END
