 xtb: 6.7.1 (edcfbbe)
          09242620043D

 60110  0     0  0            999 V2000
   -5.8494    3.3860    0.6433 B   0  0  0  0  0  0  0  0  0  0  0  0
   -5.8523    1.7085    0.2863 B   0  0  0  0  0  0  0  0  0  0  0  0
   -4.3941    4.2258    0.2585 B   0  0  0  0  0  0  0  0  0  0  0  0
   -4.3962    2.5430    0.4064 B   0  0  0  0  0  0  0  0  0  0  0  0
   -4.3950    0.8452    0.4853 B   0  0  0  0  0  0  0  0  0  0  0  0
   -5.8550   -1.6892    0.3003 B   0  0  0  0  0  0  0  0  0  0  0  0
   -5.8534   -3.3693    0.6214 B   0  0  0  0  0  0  0  0  0  0  0  0
   -4.3958   -0.8286    0.4874 B   0  0  0  0  0  0  0  0  0  0  0  0
   -4.3997   -2.5263    0.4011 B   0  0  0  0  0  0  0  0  0  0  0  0
   -4.3991   -4.2086    0.2400 B   0  0  0  0  0  0  0  0  0  0  0  0
   -2.9225    3.3979    0.3773 B   0  0  0  0  0  0  0  0  0  0  0  0
   -2.9261    1.6888    0.5065 B   0  0  0  0  0  0  0  0  0  0  0  0
   -1.4622    4.2242    0.6263 B   0  0  0  0  0  0  0  0  0  0  0  0
   -1.4632    2.5409    0.4912 B   0  0  0  0  0  0  0  0  0  0  0  0
   -1.4653    0.8478    0.3463 B   0  0  0  0  0  0  0  0  0  0  0  0
   -2.9282   -1.6745    0.4694 B   0  0  0  0  0  0  0  0  0  0  0  0
   -2.9267   -3.3830    0.3735 B   0  0  0  0  0  0  0  0  0  0  0  0
   -1.4664   -0.8335    0.3391 B   0  0  0  0  0  0  0  0  0  0  0  0
   -1.4668   -2.5286    0.4489 B   0  0  0  0  0  0  0  0  0  0  0  0
   -1.4661   -4.2125    0.5948 B   0  0  0  0  0  0  0  0  0  0  0  0
    0.0043    3.3920    0.5494 B   0  0  0  0  0  0  0  0  0  0  0  0
    0.0016    1.6888    0.3240 B   0  0  0  0  0  0  0  0  0  0  0  0
    1.4697    4.2251    0.5507 B   0  0  0  0  0  0  0  0  0  0  0  0
    1.4676    2.5399    0.4555 B   0  0  0  0  0  0  0  0  0  0  0  0
    1.4661    0.8451    0.4140 B   0  0  0  0  0  0  0  0  0  0  0  0
    0.0001   -1.6763    0.3806 B   0  0  0  0  0  0  0  0  0  0  0  0
   -0.0005   -3.3837    0.4045 B   0  0  0  0  0  0  0  0  0  0  0  0
    1.4651   -0.8353    0.4267 B   0  0  0  0  0  0  0  0  0  0  0  0
    1.4642   -2.5300    0.3368 B   0  0  0  0  0  0  0  0  0  0  0  0
    1.4614   -4.2130    0.1909 B   0  0  0  0  0  0  0  0  0  0  0  0
    2.9290    3.3940    0.3213 B   0  0  0  0  0  0  0  0  0  0  0  0
    2.9321    1.6859    0.4557 B   0  0  0  0  0  0  0  0  0  0  0  0
    4.3958    4.2199    0.1655 B   0  0  0  0  0  0  0  0  0  0  0  0
    4.3977    2.5371    0.2727 B   0  0  0  0  0  0  0  0  0  0  0  0
    4.3961    0.8398    0.3410 B   0  0  0  0  0  0  0  0  0  0  0  0
    2.9295   -1.6777    0.3733 B   0  0  0  0  0  0  0  0  0  0  0  0
    2.9258   -3.3866    0.4056 B   0  0  0  0  0  0  0  0  0  0  0  0
    4.3956   -0.8332    0.4145 B   0  0  0  0  0  0  0  0  0  0  0  0
    4.3969   -2.5311    0.4704 B   0  0  0  0  0  0  0  0  0  0  0  0
    4.3938   -4.2145    0.5728 B   0  0  0  0  0  0  0  0  0  0  0  0
    5.8590    3.3796    0.5269 B   0  0  0  0  0  0  0  0  0  0  0  0
    5.8534    1.6996    0.1502 B   0  0  0  0  0  0  0  0  0  0  0  0
    5.8548   -1.6951    0.5781 B   0  0  0  0  0  0  0  0  0  0  0  0
    5.8532   -3.3748    0.2139 B   0  0  0  0  0  0  0  0  0  0  0  0
   -6.7838    3.9568    1.0658 H   0  0  0  0  0  0  0  0  0  0  0  0
   -6.8131    1.2204   -0.1697 H   0  0  0  0  0  0  0  0  0  0  0  0
   -4.4562    5.3334   -0.1297 H   0  0  0  0  0  0  0  0  0  0  0  0
   -6.8142   -1.1832   -0.1376 H   0  0  0  0  0  0  0  0  0  0  0  0
   -6.7834   -3.9560    1.0313 H   0  0  0  0  0  0  0  0  0  0  0  0
   -4.4603   -5.3260   -0.1188 H   0  0  0  0  0  0  0  0  0  0  0  0
   -1.4786    5.3682    0.8996 H   0  0  0  0  0  0  0  0  0  0  0  0
   -1.4747   -5.3598    0.8533 H   0  0  0  0  0  0  0  0  0  0  0  0
    1.4839    5.3923    0.6990 H   0  0  0  0  0  0  0  0  0  0  0  0
    1.4631   -5.3601   -0.0687 H   0  0  0  0  0  0  0  0  0  0  0  0
    4.4553    5.3230   -0.2378 H   0  0  0  0  0  0  0  0  0  0  0  0
    4.4491   -5.3259    0.9518 H   0  0  0  0  0  0  0  0  0  0  0  0
    6.7998    3.9456    0.9409 H   0  0  0  0  0  0  0  0  0  0  0  0
    6.8001    1.2119   -0.3405 H   0  0  0  0  0  0  0  0  0  0  0  0
    6.8022   -1.2038    1.0618 H   0  0  0  0  0  0  0  0  0  0  0  0
    6.7876   -3.9519   -0.1977 H   0  0  0  0  0  0  0  0  0  0  0  0
  1  2  1  0  0  0  0
  1  3  1  0  0  0  0
  1  4  1  0  0  0  0
  2  4  1  0  0  0  0
  3  4  1  0  0  0  0
  2  5  1  0  0  0  0
  4  5  1  0  0  0  0
  6  7  1  0  0  0  0
  5  8  1  0  0  0  0
  6  8  1  0  0  0  0
  6  9  1  0  0  0  0
  7  9  1  0  0  0  0
  8  9  1  0  0  0  0
  7 10  1  0  0  0  0
  9 10  1  0  0  0  0
  3 11  1  0  0  0  0
  4 11  1  0  0  0  0
  4 12  1  0  0  0  0
  5 12  1  0  0  0  0
 11 12  1  0  0  0  0
 11 13  1  0  0  0  0
 11 14  1  0  0  0  0
 12 14  1  0  0  0  0
 13 14  1  0  0  0  0
 12 15  1  0  0  0  0
 14 15  1  0  0  0  0
  8 16  1  0  0  0  0
  9 16  1  0  0  0  0
  9 17  1  0  0  0  0
 10 17  1  0  0  0  0
 16 17  1  0  0  0  0
 15 18  1  0  0  0  0
 16 18  1  0  0  0  0
 16 19  1  0  0  0  0
 17 19  1  0  0  0  0
 18 19  1  0  0  0  0
 17 20  1  0  0  0  0
 19 20  1  0  0  0  0
 13 21  1  0  0  0  0
 14 21  1  0  0  0  0
 14 22  1  0  0  0  0
 15 22  1  0  0  0  0
 21 22  1  0  0  0  0
 21 23  1  0  0  0  0
 21 24  1  0  0  0  0
 22 24  1  0  0  0  0
 23 24  1  0  0  0  0
 22 25  1  0  0  0  0
 24 25  1  0  0  0  0
 18 26  1  0  0  0  0
 19 26  1  0  0  0  0
 19 27  1  0  0  0  0
 20 27  1  0  0  0  0
 26 27  1  0  0  0  0
 25 28  1  0  0  0  0
 26 28  1  0  0  0  0
 26 29  1  0  0  0  0
 27 29  1  0  0  0  0
 28 29  1  0  0  0  0
 27 30  1  0  0  0  0
 29 30  1  0  0  0  0
 23 31  1  0  0  0  0
 24 31  1  0  0  0  0
 24 32  1  0  0  0  0
 25 32  1  0  0  0  0
 31 32  1  0  0  0  0
 31 33  1  0  0  0  0
 31 34  1  0  0  0  0
 32 34  1  0  0  0  0
 33 34  1  0  0  0  0
 32 35  1  0  0  0  0
 34 35  1  0  0  0  0
 28 36  1  0  0  0  0
 29 36  1  0  0  0  0
 29 37  1  0  0  0  0
 30 37  1  0  0  0  0
 36 37  1  0  0  0  0
 35 38  1  0  0  0  0
 36 38  1  0  0  0  0
 36 39  1  0  0  0  0
 37 39  1  0  0  0  0
 38 39  1  0  0  0  0
 37 40  1  0  0  0  0
 39 40  1  0  0  0  0
 33 41  1  0  0  0  0
 34 41  1  0  0  0  0
 34 42  1  0  0  0  0
 35 42  1  0  0  0  0
 41 42  1  0  0  0  0
 38 43  1  0  0  0  0
 39 43  1  0  0  0  0
 39 44  1  0  0  0  0
 40 44  1  0  0  0  0
 43 44  1  0  0  0  0
  1 45  1  0  0  0  0
  2 46  1  0  0  0  0
  3 47  1  0  0  0  0
  6 48  1  0  0  0  0
  7 49  1  0  0  0  0
 10 50  1  0  0  0  0
 13 51  1  0  0  0  0
 20 52  1  0  0  0  0
 23 53  1  0  0  0  0
 30 54  1  0  0  0  0
 33 55  1  0  0  0  0
 40 56  1  0  0  0  0
 41 57  1  0  0  0  0
 42 58  1  0  0  0  0
 43 59  1  0  0  0  0
 44 60  1  0  0  0  0
M  END
