 xtb: 6.7.1 (edcfbbe)
          09242620043D

 60110  0     0  0            999 V2000
   -5.8789    2.4439    0.7868 B   0  0  0  0  0  0  0  0  0  0  0  0
   -5.7010    0.7514    0.5959 B   0  0  0  0  0  0  0  0  0  0  0  0
   -4.5207    3.4008    0.3499 B   0  0  0  0  0  0  0  0  0  0  0  0
   -4.3434    1.7447    0.6346 B   0  0  0  0  0  0  0  0  0  0  0  0
   -4.1595    0.0690    0.8455 B   0  0  0  0  0  0  0  0  0  0  0  0
   -5.3390   -2.6131    0.9065 B   0  0  0  0  0  0  0  0  0  0  0  0
   -5.1578   -4.2443    1.3965 B   0  0  0  0  0  0  0  0  0  0  0  0
   -3.9811   -1.5884    0.9925 B   0  0  0  0  0  0  0  0  0  0  0  0
   -3.8028   -3.2761    1.0770 B   0  0  0  0  0  0  0  0  0  0  0  0
   -3.6213   -4.9555    1.0884 B   0  0  0  0  0  0  0  0  0  0  0  0
   -2.9689    2.7489    0.5403 B   0  0  0  0  0  0  0  0  0  0  0  0
   -2.7899    1.0613    0.7518 B   0  0  0  0  0  0  0  0  0  0  0  0
   -1.6050    3.7436    0.7018 B   0  0  0  0  0  0  0  0  0  0  0  0
   -1.4272    2.0633    0.6844 B   0  0  0  0  0  0  0  0  0  0  0  0
   -1.2468    0.3720    0.6820 B   0  0  0  0  0  0  0  0  0  0  0  0
   -2.4311   -2.2703    1.0407 B   0  0  0  0  0  0  0  0  0  0  0  0
   -2.2459   -3.9686    1.1251 B   0  0  0  0  0  0  0  0  0  0  0  0
   -1.0675   -1.2934    0.8258 B   0  0  0  0  0  0  0  0  0  0  0  0
   -0.8865   -2.9588    1.1153 B   0  0  0  0  0  0  0  0  0  0  0  0
   -0.7056   -4.6109    1.4221 B   0  0  0  0  0  0  0  0  0  0  0  0
   -0.0601    3.0611    0.5465 B   0  0  0  0  0  0  0  0  0  0  0  0
    0.1218    1.3665    0.6526 B   0  0  0  0  0  0  0  0  0  0  0  0
    1.3056    4.0219    0.2656 B   0  0  0  0  0  0  0  0  0  0  0  0
    1.4871    2.3650    0.5400 B   0  0  0  0  0  0  0  0  0  0  0  0
    1.6679    0.6920    0.7567 B   0  0  0  0  0  0  0  0  0  0  0  0
    0.4806   -1.9655    0.9461 B   0  0  0  0  0  0  0  0  0  0  0  0
    0.6629   -3.6529    1.1362 B   0  0  0  0  0  0  0  0  0  0  0  0
    1.8471   -0.9721    0.9034 B   0  0  0  0  0  0  0  0  0  0  0  0
    2.0280   -2.6571    0.9836 B   0  0  0  0  0  0  0  0  0  0  0  0
    2.2063   -4.3364    1.0122 B   0  0  0  0  0  0  0  0  0  0  0  0
    2.8491    3.3740    0.5297 B   0  0  0  0  0  0  0  0  0  0  0  0
    3.0340    1.6723    0.5659 B   0  0  0  0  0  0  0  0  0  0  0  0
    4.2226    4.3601    0.5731 B   0  0  0  0  0  0  0  0  0  0  0  0
    4.4032    2.6796    0.5533 B   0  0  0  0  0  0  0  0  0  0  0  0
    4.5813    0.9900    0.6171 B   0  0  0  0  0  0  0  0  0  0  0  0
    3.3928   -1.6593    0.8628 B   0  0  0  0  0  0  0  0  0  0  0  0
    3.5723   -3.3405    1.1365 B   0  0  0  0  0  0  0  0  0  0  0  0
    4.7599   -0.6673    0.7690 B   0  0  0  0  0  0  0  0  0  0  0  0
    4.9439   -2.3394    1.0165 B   0  0  0  0  0  0  0  0  0  0  0  0
    5.1215   -3.9896    1.3362 B   0  0  0  0  0  0  0  0  0  0  0  0
    5.7603    3.6500    0.2448 B   0  0  0  0  0  0  0  0  0  0  0  0
    5.9423    2.0157    0.7130 B   0  0  0  0  0  0  0  0  0  0  0  0
    6.3044   -1.3473    1.0322 B   0  0  0  0  0  0  0  0  0  0  0  0
    6.4818   -3.0396    0.8653 B   0  0  0  0  0  0  0  0  0  0  0  0
   -6.8753    2.9538    1.1393 H   0  0  0  0  0  0  0  0  0  0  0  0
   -6.6000    0.1173    0.1986 H   0  0  0  0  0  0  0  0  0  0  0  0
   -4.6944    4.4771   -0.0890 H   0  0  0  0  0  0  0  0  0  0  0  0
   -6.3477   -2.2633    0.4284 H   0  0  0  0  0  0  0  0  0  0  0  0
   -6.0250   -4.8831    1.8618 H   0  0  0  0  0  0  0  0  0  0  0  0
   -3.5611   -6.1026    0.8400 H   0  0  0  0  0  0  0  0  0  0  0  0
   -1.7324    4.8937    0.9097 H   0  0  0  0  0  0  0  0  0  0  0  0
   -0.5915   -5.7139    1.8130 H   0  0  0  0  0  0  0  0  0  0  0  0
    1.1877    5.1382   -0.0852 H   0  0  0  0  0  0  0  0  0  0  0  0
    2.3350   -5.4959    0.8643 H   0  0  0  0  0  0  0  0  0  0  0  0
    4.1677    5.5038    0.8366 H   0  0  0  0  0  0  0  0  0  0  0  0
    5.3027   -5.0526    1.8031 H   0  0  0  0  0  0  0  0  0  0  0  0
    6.6206    4.2984   -0.2206 H   0  0  0  0  0  0  0  0  0  0  0  0
    6.9481    1.6581    1.1910 H   0  0  0  0  0  0  0  0  0  0  0  0
    7.1985   -0.7061    1.4289 H   0  0  0  0  0  0  0  0  0  0  0  0
    7.4711   -3.5628    0.5126 H   0  0  0  0  0  0  0  0  0  0  0  0
  1  2  1  0  0  0  0
  1  3  1  0  0  0  0
  1  4  1  0  0  0  0
  2  4  1  0  0  0  0
  3  4  1  0  0  0  0
  2  5  1  0  0  0  0
  4  5  1  0  0  0  0
  6  7  1  0  0  0  0
  5  8  1  0  0  0  0
  6  8  1  0  0  0  0
  6  9  1  0  0  0  0
  7  9  1  0  0  0  0
  8  9  1  0  0  0  0
  7 10  1  0  0  0  0
  9 10  1  0  0  0  0
  3 11  1  0  0  0  0
  4 11  1  0  0  0  0
  4 12  1  0  0  0  0
  5 12  1  0  0  0  0
 11 12  1  0  0  0  0
 11 13  1  0  0  0  0
 11 14  1  0  0  0  0
 12 14  1  0  0  0  0
 13 14  1  0  0  0  0
 12 15  1  0  0  0  0
 14 15  1  0  0  0  0
  8 16  1  0  0  0  0
  9 16  1  0  0  0  0
  9 17  1  0  0  0  0
 10 17  1  0  0  0  0
 16 17  1  0  0  0  0
 15 18  1  0  0  0  0
 16 18  1  0  0  0  0
 16 19  1  0  0  0  0
 17 19  1  0  0  0  0
 18 19  1  0  0  0  0
 17 20  1  0  0  0  0
 19 20  1  0  0  0  0
 13 21  1  0  0  0  0
 14 21  1  0  0  0  0
 14 22  1  0  0  0  0
 15 22  1  0  0  0  0
 21 22  1  0  0  0  0
 21 23  1  0  0  0  0
 21 24  1  0  0  0  0
 22 24  1  0  0  0  0
 23 24  1  0  0  0  0
 22 25  1  0  0  0  0
 24 25  1  0  0  0  0
 18 26  1  0  0  0  0
 19 26  1  0  0  0  0
 19 27  1  0  0  0  0
 20 27  1  0  0  0  0
 26 27  1  0  0  0  0
 25 28  1  0  0  0  0
 26 28  1  0  0  0  0
 26 29  1  0  0  0  0
 27 29  1  0  0  0  0
 28 29  1  0  0  0  0
 27 30  1  0  0  0  0
 29 30  1  0  0  0  0
 23 31  1  0  0  0  0
 24 31  1  0  0  0  0
 24 32  1  0  0  0  0
 25 32  1  0  0  0  0
 31 32  1  0  0  0  0
 31 33  1  0  0  0  0
 31 34  1  0  0  0  0
 32 34  1  0  0  0  0
 33 34  1  0  0  0  0
 32 35  1  0  0  0  0
 34 35  1  0  0  0  0
 28 36  1  0  0  0  0
 29 36  1  0  0  0  0
 29 37  1  0  0  0  0
 30 37  1  0  0  0  0
 36 37  1  0  0  0  0
 35 38  1  0  0  0  0
 36 38  1  0  0  0  0
 36 39  1  0  0  0  0
 37 39  1  0  0  0  0
 38 39  1  0  0  0  0
 37 40  1  0  0  0  0
 39 40  1  0  0  0  0
 33 41  1  0  0  0  0
 34 41  1  0  0  0  0
 34 42  1  0  0  0  0
 35 42  1  0  0  0  0
 41 42  1  0  0  0  0
 38 43  1  0  0  0  0
 39 43  1  0  0  0  0
 39 44  1  0  0  0  0
 40 44  1  0  0  0  0
 43 44  1  0  0  0  0
  1 45  1  0  0  0  0
  2 46  1  0  0  0  0
  3 47  1  0  0  0  0
  6 48  1  0  0  0  0
  7 49  1  0  0  0  0
 10 50  1  0  0  0  0
 13 51  1  0  0  0  0
 20 52  1  0  0  0  0
 23 53  1  0  0  0  0
 30 54  1  0  0  0  0
 33 55  1  0  0  0  0
 40 56  1  0  0  0  0
 41 57  1  0  0  0  0
 42 58  1  0  0  0  0
 43 59  1  0  0  0  0
 44 60  1  0  0  0  0
M  END
