 xtb: 6.7.1 (edcfbbe)
          09242620033D

 60110  0     0  0            999 V2000
   -5.9689    2.9126   -0.0987 B   0  0  0  0  0  0  0  0  0  0  0  0
   -5.9212    1.2299    0.2080 B   0  0  0  0  0  0  0  0  0  0  0  0
   -4.5384    3.7882    0.2950 B   0  0  0  0  0  0  0  0  0  0  0  0
   -4.4909    2.1094    0.1044 B   0  0  0  0  0  0  0  0  0  0  0  0
   -4.4388    0.4135    0.0003 B   0  0  0  0  0  0  0  0  0  0  0  0
   -5.8214   -2.1659    0.1845 B   0  0  0  0  0  0  0  0  0  0  0  0
   -5.7721   -3.8405   -0.1665 B   0  0  0  0  0  0  0  0  0  0  0  0
   -4.3900   -1.2596   -0.0137 B   0  0  0  0  0  0  0  0  0  0  0  0
   -4.3427   -2.9579    0.0557 B   0  0  0  0  0  0  0  0  0  0  0  0
   -4.2913   -4.6408    0.1958 B   0  0  0  0  0  0  0  0  0  0  0  0
   -3.0430    3.0070    0.1493 B   0  0  0  0  0  0  0  0  0  0  0  0
   -2.9961    1.3012    0.0073 B   0  0  0  0  0  0  0  0  0  0  0  0
   -1.6076    3.8818   -0.0513 B   0  0  0  0  0  0  0  0  0  0  0  0
   -1.5597    2.1964    0.0468 B   0  0  0  0  0  0  0  0  0  0  0  0
   -1.5100    0.5012    0.0914 B   0  0  0  0  0  0  0  0  0  0  0  0
   -2.8979   -2.0611   -0.0325 B   0  0  0  0  0  0  0  0  0  0  0  0
   -2.8446   -3.7700    0.0651 B   0  0  0  0  0  0  0  0  0  0  0  0
   -1.4609   -1.1782    0.0674 B   0  0  0  0  0  0  0  0  0  0  0  0
   -1.4117   -2.8713   -0.0319 B   0  0  0  0  0  0  0  0  0  0  0  0
   -1.3614   -4.5532   -0.1714 B   0  0  0  0  0  0  0  0  0  0  0  0
   -0.1183    3.0919    0.1257 B   0  0  0  0  0  0  0  0  0  0  0  0
   -0.0683    1.3861    0.0605 B   0  0  0  0  0  0  0  0  0  0  0  0
    1.3199    3.9586    0.3477 B   0  0  0  0  0  0  0  0  0  0  0  0
    1.3703    2.2800    0.1548 B   0  0  0  0  0  0  0  0  0  0  0  0
    1.4199    0.5887   -0.0107 B   0  0  0  0  0  0  0  0  0  0  0  0
    0.0301   -1.9761    0.0065 B   0  0  0  0  0  0  0  0  0  0  0  0
    0.0798   -3.6830    0.0203 B   0  0  0  0  0  0  0  0  0  0  0  0
    1.4689   -1.0911   -0.0387 B   0  0  0  0  0  0  0  0  0  0  0  0
    1.5185   -2.7869    0.0625 B   0  0  0  0  0  0  0  0  0  0  0  0
    1.5666   -4.4707    0.2126 B   0  0  0  0  0  0  0  0  0  0  0  0
    2.8060    3.1794    0.0921 B   0  0  0  0  0  0  0  0  0  0  0  0
    2.8590    1.4704    0.1284 B   0  0  0  0  0  0  0  0  0  0  0  0
    4.2506    4.0511   -0.0295 B   0  0  0  0  0  0  0  0  0  0  0  0
    4.3019    2.3667    0.0869 B   0  0  0  0  0  0  0  0  0  0  0  0
    4.3488    0.6687    0.1222 B   0  0  0  0  0  0  0  0  0  0  0  0
    2.9573   -1.8913    0.0744 B   0  0  0  0  0  0  0  0  0  0  0  0
    3.0043   -3.5983   -0.0145 B   0  0  0  0  0  0  0  0  0  0  0  0
    4.3977   -1.0039    0.0961 B   0  0  0  0  0  0  0  0  0  0  0  0
    4.4501   -2.7000    0.0120 B   0  0  0  0  0  0  0  0  0  0  0  0
    4.4972   -4.3800   -0.1603 B   0  0  0  0  0  0  0  0  0  0  0  0
    5.7328    3.2476    0.3291 B   0  0  0  0  0  0  0  0  0  0  0  0
    5.7835    1.5762   -0.0389 B   0  0  0  0  0  0  0  0  0  0  0  0
    5.8828   -1.8209   -0.0907 B   0  0  0  0  0  0  0  0  0  0  0  0
    5.9301   -3.5028    0.2269 B   0  0  0  0  0  0  0  0  0  0  0  0
   -6.9180    3.4773   -0.4957 H   0  0  0  0  0  0  0  0  0  0  0  0
   -6.8621    0.6963    0.6531 H   0  0  0  0  0  0  0  0  0  0  0  0
   -4.6321    4.8966    0.6739 H   0  0  0  0  0  0  0  0  0  0  0  0
   -6.7878   -1.7005    0.6511 H   0  0  0  0  0  0  0  0  0  0  0  0
   -6.6900   -4.4489   -0.5722 H   0  0  0  0  0  0  0  0  0  0  0  0
   -4.3179   -5.7619    0.5469 H   0  0  0  0  0  0  0  0  0  0  0  0
   -1.6455    5.0332   -0.2876 H   0  0  0  0  0  0  0  0  0  0  0  0
   -1.3350   -5.6967   -0.4452 H   0  0  0  0  0  0  0  0  0  0  0  0
    1.2947    5.0909    0.6640 H   0  0  0  0  0  0  0  0  0  0  0  0
    1.6075   -5.6141    0.4841 H   0  0  0  0  0  0  0  0  0  0  0  0
    4.2787    5.1770   -0.3654 H   0  0  0  0  0  0  0  0  0  0  0  0
    4.5915   -5.4915   -0.5305 H   0  0  0  0  0  0  0  0  0  0  0  0
    6.6478    3.8535    0.7446 H   0  0  0  0  0  0  0  0  0  0  0  0
    6.7564    1.1135   -0.4947 H   0  0  0  0  0  0  0  0  0  0  0  0
    6.8265   -1.2885   -0.5315 H   0  0  0  0  0  0  0  0  0  0  0  0
    6.8788   -4.0667    0.6256 H   0  0  0  0  0  0  0  0  0  0  0  0
  1  2  1  0  0  0  0
  1  3  1  0  0  0  0
  1  4  1  0  0  0  0
  2  4  1  0  0  0  0
  3  4  1  0  0  0  0
  2  5  1  0  0  0  0
  4  5  1  0  0  0  0
  6  7  1  0  0  0  0
  5  8  1  0  0  0  0
  6  8  1  0  0  0  0
  6  9  1  0  0  0  0
  7  9  1  0  0  0  0
  8  9  1  0  0  0  0
  7 10  1  0  0  0  0
  9 10  1  0  0  0  0
  3 11  1  0  0  0  0
  4 11  1  0  0  0  0
  4 12  1  0  0  0  0
  5 12  1  0  0  0  0
 11 12  1  0  0  0  0
 11 13  1  0  0  0  0
 11 14  1  0  0  0  0
 12 14  1  0  0  0  0
 13 14  1  0  0  0  0
 12 15  1  0  0  0  0
 14 15  1  0  0  0  0
  8 16  1  0  0  0  0
  9 16  1  0  0  0  0
  9 17  1  0  0  0  0
 10 17  1  0  0  0  0
 16 17  1  0  0  0  0
 15 18  1  0  0  0  0
 16 18  1  0  0  0  0
 16 19  1  0  0  0  0
 17 19  1  0  0  0  0
 18 19  1  0  0  0  0
 17 20  1  0  0  0  0
 19 20  1  0  0  0  0
 13 21  1  0  0  0  0
 14 21  1  0  0  0  0
 14 22  1  0  0  0  0
 15 22  1  0  0  0  0
 21 22  1  0  0  0  0
 21 23  1  0  0  0  0
 21 24  1  0  0  0  0
 22 24  1  0  0  0  0
 23 24  1  0  0  0  0
 22 25  1  0  0  0  0
 24 25  1  0  0  0  0
 18 26  1  0  0  0  0
 19 26  1  0  0  0  0
 19 27  1  0  0  0  0
 20 27  1  0  0  0  0
 26 27  1  0  0  0  0
 25 28  1  0  0  0  0
 26 28  1  0  0  0  0
 26 29  1  0  0  0  0
 27 29  1  0  0  0  0
 28 29  1  0  0  0  0
 27 30  1  0  0  0  0
 29 30  1  0  0  0  0
 23 31  1  0  0  0  0
 24 31  1  0  0  0  0
 24 32  1  0  0  0  0
 25 32  1  0  0  0  0
 31 32  1  0  0  0  0
 31 33  1  0  0  0  0
 31 34  1  0  0  0  0
 32 34  1  0  0  0  0
 33 34  1  0  0  0  0
 32 35  1  0  0  0  0
 34 35  1  0  0  0  0
 28 36  1  0  0  0  0
 29 36  1  0  0  0  0
 29 37  1  0  0  0  0
 30 37  1  0  0  0  0
 36 37  1  0  0  0  0
 35 38  1  0  0  0  0
 36 38  1  0  0  0  0
 36 39  1  0  0  0  0
 37 39  1  0  0  0  0
 38 39  1  0  0  0  0
 37 40  1  0  0  0  0
 39 40  1  0  0  0  0
 33 41  1  0  0  0  0
 34 41  1  0  0  0  0
 34 42  1  0  0  0  0
 35 42  1  0  0  0  0
 41 42  1  0  0  0  0
 38 43  1  0  0  0  0
 39 43  1  0  0  0  0
 39 44  1  0  0  0  0
 40 44  1  0  0  0  0
 43 44  1  0  0  0  0
  1 45  1  0  0  0  0
  2 46  1  0  0  0  0
  3 47  1  0  0  0  0
  6 48  1  0  0  0  0
  7 49  1  0  0  0  0
 10 50  1  0  0  0  0
 13 51  1  0  0  0  0
 20 52  1  0  0  0  0
 23 53  1  0  0  0  0
 30 54  1  0  0  0  0
 33 55  1  0  0  0  0
 40 56  1  0  0  0  0
 41 57  1  0  0  0  0
 42 58  1  0  0  0  0
 43 59  1  0  0  0  0
 44 60  1  0  0  0  0
M  END
