 xtb: 6.7.1pre (5071a88)
          09012616343D

114157  0     0  0            999 V2000
   -6.2288    1.6305   11.7336 O   0  0  0  0  0  0  0  0  0  0  0  0
   -6.3588    0.7240   10.9279 C   0  0  0  0  0  0  0  0  0  0  0  0
   -6.5952   -0.5400   11.3139 O   0  0  0  0  0  0  0  0  0  0  0  0
   -6.2711    0.8954    9.4624 C   0  0  0  0  0  0  0  0  0  0  0  0
   -6.4466   -0.1912    8.5951 C   0  0  0  0  0  0  0  0  0  0  0  0
   -6.3344   -0.0202    7.2100 C   0  0  0  0  0  0  0  0  0  0  0  0
   -6.5299   -1.1071    6.3363 N   0  0  0  0  0  0  0  0  0  0  0  0
   -5.5677   -1.8577    6.0242 N   0  0  0  0  0  0  0  0  0  0  0  0
   -4.2779   -1.6175    6.5358 C   0  0  0  0  0  0  0  0  0  0  0  0
   -3.3891   -0.7731    5.8651 C   0  0  0  0  0  0  0  0  0  0  0  0
   -2.1025   -0.5510    6.3674 C   0  0  0  0  0  0  0  0  0  0  0  0
   -1.6651   -1.1864    7.5408 C   0  0  0  0  0  0  0  0  0  0  0  0
   -0.3145   -0.9466    8.0729 C   0  0  0  0  0  0  0  0  0  0  0  0
    0.5634   -2.0122    8.3286 C   0  0  0  0  0  0  0  0  0  0  0  0
    1.8479   -1.7819    8.8347 C   0  0  0  0  0  0  0  0  0  0  0  0
    2.2910   -0.4824    9.0906 C   0  0  0  0  0  0  0  0  0  0  0  0
    3.5763   -0.2857    9.6274 N   0  0  0  0  0  0  0  0  0  0  0  0
    4.2783    0.3988    8.8504 N   0  0  0  0  0  0  0  0  0  0  0  0
    5.5641    0.5805    9.3887 C   0  0  0  0  0  0  0  0  0  0  0  0
    6.6620   -0.0198    8.7627 C   0  0  0  0  0  0  0  0  0  0  0  0
    7.9578    0.1680    9.2636 C   0  0  0  0  0  0  0  0  0  0  0  0
    9.1260   -0.4668    8.6169 C   0  0  0  0  0  0  0  0  0  0  0  0
   10.2761   -0.3425    9.0037 O   0  0  0  0  0  0  0  0  0  0  0  0
    8.8151   -1.2097    7.5428 O   0  0  0  0  0  0  0  0  0  0  0  0
    8.1483    0.9731   10.3954 C   0  0  0  0  0  0  0  0  0  0  0  0
    9.3749    1.2146   10.9547 O   0  0  0  0  0  0  0  0  0  0  0  0
    7.0623    1.5840   11.0171 C   0  0  0  0  0  0  0  0  0  0  0  0
    5.7756    1.3912   10.5119 C   0  0  0  0  0  0  0  0  0  0  0  0
    1.4178    0.5844    8.8521 C   0  0  0  0  0  0  0  0  0  0  0  0
    0.1337    0.3560    8.3447 C   0  0  0  0  0  0  0  0  0  0  0  0
   -2.5530   -2.0609    8.1877 C   0  0  0  0  0  0  0  0  0  0  0  0
   -3.8402   -2.2803    7.6857 C   0  0  0  0  0  0  0  0  0  0  0  0
   -6.1005    1.2608    6.6957 C   0  0  0  0  0  0  0  0  0  0  0  0
   -5.9296    2.3496    7.5517 C   0  0  0  0  0  0  0  0  0  0  0  0
   -6.0094    2.1654    8.9297 C   0  0  0  0  0  0  0  0  0  0  0  0
   -5.8250    3.2846    9.6970 O   0  0  0  0  0  0  0  0  0  0  0  0
   -6.6284   -0.5005   12.2930 H   0  0  0  0  0  0  0  0  0  0  0  0
   -6.6626   -1.1833    8.9833 H   0  0  0  0  0  0  0  0  0  0  0  0
   -3.7030   -0.2808    4.9485 H   0  0  0  0  0  0  0  0  0  0  0  0
   -1.4349    0.1158    5.8246 H   0  0  0  0  0  0  0  0  0  0  0  0
    0.2563   -3.0362    8.1245 H   0  0  0  0  0  0  0  0  0  0  0  0
    2.5105   -2.6222    9.0257 H   0  0  0  0  0  0  0  0  0  0  0  0
    6.4892   -0.6363    7.8839 H   0  0  0  0  0  0  0  0  0  0  0  0
    9.6728   -1.5613    7.2236 H   0  0  0  0  0  0  0  0  0  0  0  0
   10.0613    0.7383   10.4386 H   0  0  0  0  0  0  0  0  0  0  0  0
    7.2176    2.2099   11.8921 H   0  0  0  0  0  0  0  0  0  0  0  0
    4.9290    1.8722   10.9957 H   0  0  0  0  0  0  0  0  0  0  0  0
    1.7390    1.6009    9.0642 H   0  0  0  0  0  0  0  0  0  0  0  0
   -0.5224    1.2079    8.1758 H   0  0  0  0  0  0  0  0  0  0  0  0
   -2.2505   -2.5736    9.0988 H   0  0  0  0  0  0  0  0  0  0  0  0
   -4.5101   -2.9651    8.1990 H   0  0  0  0  0  0  0  0  0  0  0  0
   -6.0456    1.4061    5.6197 H   0  0  0  0  0  0  0  0  0  0  0  0
   -5.7373    3.3393    7.1456 H   0  0  0  0  0  0  0  0  0  0  0  0
   -5.9125    3.0409   10.6443 H   0  0  0  0  0  0  0  0  0  0  0  0
   -6.9256   -4.6511    0.2587 B   0  0  0  0  0  0  0  0  0  0  0  0
   -5.1098   -2.2493    0.3222 B   0  0  0  0  0  0  0  0  0  0  0  0
   -3.5915   -2.1814    0.2128 B   0  0  0  0  0  0  0  0  0  0  0  0
    0.9993   -2.8754    0.0638 B   0  0  0  0  0  0  0  0  0  0  0  0
    2.4759   -3.0122   -0.2709 B   0  0  0  0  0  0  0  0  0  0  0  0
    5.2994   -3.8314   -0.6672 B   0  0  0  0  0  0  0  0  0  0  0  0
    6.3183   -4.8359   -1.1558 B   0  0  0  0  0  0  0  0  0  0  0  0
   -6.4348   -3.1583    0.2864 B   0  0  0  0  0  0  0  0  0  0  0  0
   -6.7520   -1.6338    0.3164 B   0  0  0  0  0  0  0  0  0  0  0  0
   -2.0526   -2.3173    0.3349 B   0  0  0  0  0  0  0  0  0  0  0  0
   -0.4841   -2.4619    0.2574 B   0  0  0  0  0  0  0  0  0  0  0  0
    4.0184   -2.9011   -0.2872 B   0  0  0  0  0  0  0  0  0  0  0  0
    5.7532   -2.2815   -0.3028 B   0  0  0  0  0  0  0  0  0  0  0  0
    6.8301   -3.2288   -1.0929 B   0  0  0  0  0  0  0  0  0  0  0  0
   -7.6564   -0.2550    0.3431 B   0  0  0  0  0  0  0  0  0  0  0  0
   -6.0374   -0.1395    0.1913 B   0  0  0  0  0  0  0  0  0  0  0  0
   -4.4316   -0.5357    0.2239 B   0  0  0  0  0  0  0  0  0  0  0  0
   -2.7379   -0.6604    0.3290 B   0  0  0  0  0  0  0  0  0  0  0  0
   -1.0518   -0.9157    0.6419 B   0  0  0  0  0  0  0  0  0  0  0  0
    0.5171   -1.1722    0.7257 B   0  0  0  0  0  0  0  0  0  0  0  0
    3.1231   -1.4831   -0.0635 B   0  0  0  0  0  0  0  0  0  0  0  0
    4.7001   -1.1340    0.3402 B   0  0  0  0  0  0  0  0  0  0  0  0
    6.2667   -0.7872    0.2517 B   0  0  0  0  0  0  0  0  0  0  0  0
    7.6720   -0.3517    1.0327 B   0  0  0  0  0  0  0  0  0  0  0  0
   -6.9181    1.2121    0.1915 B   0  0  0  0  0  0  0  0  0  0  0  0
   -3.4184    0.7801    0.0809 B   0  0  0  0  0  0  0  0  0  0  0  0
   -1.6542    0.5326    0.1239 B   0  0  0  0  0  0  0  0  0  0  0  0
    1.8622   -0.4037    0.3246 B   0  0  0  0  0  0  0  0  0  0  0  0
    3.5847   -0.1504    0.7852 B   0  0  0  0  0  0  0  0  0  0  0  0
    6.9910    0.6111   -0.1068 B   0  0  0  0  0  0  0  0  0  0  0  0
    8.3074    1.0629    0.6316 B   0  0  0  0  0  0  0  0  0  0  0  0
   -7.6194    2.8040    0.2986 B   0  0  0  0  0  0  0  0  0  0  0  0
   -6.1238    2.5185   -0.1765 B   0  0  0  0  0  0  0  0  0  0  0  0
   -3.5886    2.3277   -0.2368 B   0  0  0  0  0  0  0  0  0  0  0  0
   -0.9061    1.8195   -0.4198 B   0  0  0  0  0  0  0  0  0  0  0  0
    1.6234    1.0199   -0.4108 B   0  0  0  0  0  0  0  0  0  0  0  0
    3.0108    1.3090    0.5297 B   0  0  0  0  0  0  0  0  0  0  0  0
    6.3729    1.8582   -0.9160 B   0  0  0  0  0  0  0  0  0  0  0  0
   -6.5277    4.0456   -0.1608 B   0  0  0  0  0  0  0  0  0  0  0  0
   -4.8736    3.4948   -0.3884 B   0  0  0  0  0  0  0  0  0  0  0  0
   -3.4155    3.8801   -0.6064 B   0  0  0  0  0  0  0  0  0  0  0  0
   -2.0235    3.2206   -0.6767 B   0  0  0  0  0  0  0  0  0  0  0  0
   -0.4974    3.2796   -0.8970 B   0  0  0  0  0  0  0  0  0  0  0  0
    0.7107    2.3324   -0.7457 B   0  0  0  0  0  0  0  0  0  0  0  0
    2.3353    2.4781   -0.4754 B   0  0  0  0  0  0  0  0  0  0  0  0
    3.8161    2.6195   -0.0941 B   0  0  0  0  0  0  0  0  0  0  0  0
    5.3698    2.8646   -0.1489 B   0  0  0  0  0  0  0  0  0  0  0  0
    6.0551    4.0800    0.6312 B   0  0  0  0  0  0  0  0  0  0  0  0
    6.2041    5.1477    0.1463 H   0  0  0  0  0  0  0  0  0  0  0  0
    8.2184   -1.1210    1.7268 H   0  0  0  0  0  0  0  0  0  0  0  0
    6.6224    1.9818   -2.0674 H   0  0  0  0  0  0  0  0  0  0  0  0
   -7.0900   -5.2506   -0.7538 H   0  0  0  0  0  0  0  0  0  0  0  0
   -6.7912    5.1815   -0.2852 H   0  0  0  0  0  0  0  0  0  0  0  0
    9.1569    1.8466    0.7900 H   0  0  0  0  0  0  0  0  0  0  0  0
   -8.8277   -0.3758    0.3286 H   0  0  0  0  0  0  0  0  0  0  0  0
    6.7839   -5.8690   -1.4465 H   0  0  0  0  0  0  0  0  0  0  0  0
   -8.7247    3.0012    0.6388 H   0  0  0  0  0  0  0  0  0  0  0  0
    7.8918   -2.8835   -1.4737 H   0  0  0  0  0  0  0  0  0  0  0  0
    6.4282    3.9996    1.7485 H   0  0  0  0  0  0  0  0  0  0  0  0
   -7.2249   -5.2823    1.2187 H   0  0  0  0  0  0  0  0  0  0  0  0
  1  2  2  0  0  0  0
  2  3  1  0  0  0  0
  2  4  1  0  0  0  0
  4  5  4  0  0  0  0
  5  6  4  0  0  0  0
  6  7  1  0  0  0  0
  7  8  2  0  0  0  0
  8  9  1  0  0  0  0
  9 10  4  0  0  0  0
 10 11  4  0  0  0  0
 11 12  4  0  0  0  0
 12 13  1  0  0  0  0
 13 14  4  0  0  0  0
 14 15  4  0  0  0  0
 15 16  4  0  0  0  0
 16 17  1  0  0  0  0
 17 18  2  0  0  0  0
 18 19  1  0  0  0  0
 19 20  4  0  0  0  0
 20 21  4  0  0  0  0
 21 22  1  0  0  0  0
 22 23  2  0  0  0  0
 22 24  1  0  0  0  0
 21 25  4  0  0  0  0
 25 26  1  0  0  0  0
 25 27  4  0  0  0  0
 19 28  4  0  0  0  0
 27 28  4  0  0  0  0
 16 29  4  0  0  0  0
 13 30  4  0  0  0  0
 29 30  4  0  0  0  0
 12 31  4  0  0  0  0
  9 32  4  0  0  0  0
 31 32  4  0  0  0  0
  6 33  4  0  0  0  0
 33 34  4  0  0  0  0
  4 35  4  0  0  0  0
 34 35  4  0  0  0  0
 35 36  1  0  0  0  0
  3 37  1  0  0  0  0
  5 38  1  0  0  0  0
 10 39  1  0  0  0  0
 11 40  1  0  0  0  0
 14 41  1  0  0  0  0
 15 42  1  0  0  0  0
 20 43  1  0  0  0  0
 24 44  1  0  0  0  0
 26 45  1  0  0  0  0
 27 46  1  0  0  0  0
 28 47  1  0  0  0  0
 29 48  1  0  0  0  0
 30 49  1  0  0  0  0
 31 50  1  0  0  0  0
 32 51  1  0  0  0  0
 33 52  1  0  0  0  0
 34 53  1  0  0  0  0
 36 54  1  0  0  0  0
 56 57  1  0  0  0  0
 58 59  2  0  0  0  0
 60 61  2  0  0  0  0
 55 62  1  0  0  0  0
 56 62  1  0  0  0  0
 56 63  1  0  0  0  0
 62 63  1  0  0  0  0
 57 64  1  0  0  0  0
 58 65  1  0  0  0  0
 64 65  1  0  0  0  0
 59 66  1  0  0  0  0
 60 66  1  0  0  0  0
 60 67  1  0  0  0  0
 66 67  1  0  0  0  0
 60 68  1  0  0  0  0
 61 68  1  0  0  0  0
 67 68  1  0  0  0  0
 63 69  1  0  0  0  0
 63 70  1  0  0  0  0
 69 70  1  0  0  0  0
 56 71  1  0  0  0  0
 57 71  1  0  0  0  0
 70 71  1  0  0  0  0
 57 72  1  0  0  0  0
 64 72  1  0  0  0  0
 71 72  1  0  0  0  0
 64 73  1  0  0  0  0
 65 73  1  0  0  0  0
 72 73  1  0  0  0  0
 58 74  1  0  0  0  0
 65 74  1  0  0  0  0
 73 74  1  0  0  0  0
 59 75  1  0  0  0  0
 66 75  1  0  0  0  0
 66 76  1  0  0  0  0
 67 76  1  0  0  0  0
 75 76  1  0  0  0  0
 67 77  1  0  0  0  0
 76 77  1  0  0  0  0
 77 78  1  0  0  0  0
 69 79  1  0  0  0  0
 70 79  1  0  0  0  0
 71 80  1  0  0  0  0
 72 80  1  0  0  0  0
 72 81  1  0  0  0  0
 73 81  1  0  0  0  0
 80 81  1  0  0  0  0
 74 82  1  0  0  0  0
 75 82  1  0  0  0  0
 75 83  1  0  0  0  0
 76 83  1  0  0  0  0
 82 83  1  0  0  0  0
 77 84  1  0  0  0  0
 78 84  1  0  0  0  0
 78 85  1  0  0  0  0
 84 85  1  0  0  0  0
 79 86  1  0  0  0  0
 79 87  1  0  0  0  0
 86 87  1  0  0  0  0
 80 88  1  0  0  0  0
 81 89  1  0  0  0  0
 82 90  1  0  0  0  0
 83 91  1  0  0  0  0
 90 91  1  0  0  0  0
 84 92  1  0  0  0  0
 86 93  1  0  0  0  0
 87 93  1  0  0  0  0
 87 94  1  0  0  0  0
 88 94  1  0  0  0  0
 93 94  1  0  0  0  0
 88 95  1  0  0  0  0
 94 95  1  0  0  0  0
 88 96  1  0  0  0  0
 89 96  1  0  0  0  0
 95 96  1  0  0  0  0
 89 97  1  0  0  0  0
 96 97  1  0  0  0  0
 89 98  1  0  0  0  0
 90 98  1  0  0  0  0
 97 98  1  0  0  0  0
 90 99  1  0  0  0  0
 91 99  1  0  0  0  0
 98 99  1  0  0  0  0
 91100  1  0  0  0  0
 99100  1  0  0  0  0
 92101  1  0  0  0  0
100101  1  0  0  0  0
101102  1  0  0  0  0
102103  1  0  0  0  0
 78104  1  0  0  0  0
 92105  1  0  0  0  0
 55106  1  0  0  0  0
 93107  1  0  0  0  0
 85108  1  0  0  0  0
 69109  1  0  0  0  0
 61110  1  0  0  0  0
 86111  1  0  0  0  0
 68112  1  0  0  0  0
102113  1  0  0  0  0
 55114  1  0  0  0  0
M  END
