 xtb: 6.7.1pre (5071a88)
          08312620203D

114151  0     0  0            999 V2000
   -6.2288    1.6305    6.5753 O   0  0  0  0  0  0  0  0  0  0  0  0
   -6.3588    0.7240    5.7696 C   0  0  0  0  0  0  0  0  0  0  0  0
   -6.5952   -0.5400    6.1555 O   0  0  0  0  0  0  0  0  0  0  0  0
   -6.2711    0.8954    4.3041 C   0  0  0  0  0  0  0  0  0  0  0  0
   -6.4466   -0.1912    3.4368 C   0  0  0  0  0  0  0  0  0  0  0  0
   -6.3344   -0.0202    2.0517 C   0  0  0  0  0  0  0  0  0  0  0  0
   -6.5299   -1.1071    1.1780 N   0  0  0  0  0  0  0  0  0  0  0  0
   -5.5677   -1.8577    0.8659 N   0  0  0  0  0  0  0  0  0  0  0  0
   -4.2779   -1.6175    1.3775 C   0  0  0  0  0  0  0  0  0  0  0  0
   -3.3891   -0.7731    0.7068 C   0  0  0  0  0  0  0  0  0  0  0  0
   -2.1025   -0.5510    1.2090 C   0  0  0  0  0  0  0  0  0  0  0  0
   -1.6651   -1.1864    2.3825 C   0  0  0  0  0  0  0  0  0  0  0  0
   -0.3145   -0.9466    2.9146 C   0  0  0  0  0  0  0  0  0  0  0  0
    0.5634   -2.0122    3.1703 C   0  0  0  0  0  0  0  0  0  0  0  0
    1.8479   -1.7819    3.6764 C   0  0  0  0  0  0  0  0  0  0  0  0
    2.2910   -0.4824    3.9323 C   0  0  0  0  0  0  0  0  0  0  0  0
    3.5763   -0.2857    4.4691 N   0  0  0  0  0  0  0  0  0  0  0  0
    4.2783    0.3988    3.6921 N   0  0  0  0  0  0  0  0  0  0  0  0
    5.5641    0.5805    4.2304 C   0  0  0  0  0  0  0  0  0  0  0  0
    6.6620   -0.0198    3.6044 C   0  0  0  0  0  0  0  0  0  0  0  0
    7.9578    0.1680    4.1053 C   0  0  0  0  0  0  0  0  0  0  0  0
    9.1260   -0.4668    3.4585 C   0  0  0  0  0  0  0  0  0  0  0  0
   10.2761   -0.3425    3.8454 O   0  0  0  0  0  0  0  0  0  0  0  0
    8.8151   -1.2097    2.3845 O   0  0  0  0  0  0  0  0  0  0  0  0
    8.1483    0.9731    5.2371 C   0  0  0  0  0  0  0  0  0  0  0  0
    9.3749    1.2146    5.7964 O   0  0  0  0  0  0  0  0  0  0  0  0
    7.0623    1.5840    5.8588 C   0  0  0  0  0  0  0  0  0  0  0  0
    5.7756    1.3912    5.3536 C   0  0  0  0  0  0  0  0  0  0  0  0
    1.4178    0.5844    3.6938 C   0  0  0  0  0  0  0  0  0  0  0  0
    0.1337    0.3560    3.1864 C   0  0  0  0  0  0  0  0  0  0  0  0
   -2.5530   -2.0609    3.0294 C   0  0  0  0  0  0  0  0  0  0  0  0
   -3.8402   -2.2803    2.5274 C   0  0  0  0  0  0  0  0  0  0  0  0
   -6.1005    1.2608    1.5374 C   0  0  0  0  0  0  0  0  0  0  0  0
   -5.9296    2.3496    2.3933 C   0  0  0  0  0  0  0  0  0  0  0  0
   -6.0094    2.1654    3.7714 C   0  0  0  0  0  0  0  0  0  0  0  0
   -5.8250    3.2846    4.5386 O   0  0  0  0  0  0  0  0  0  0  0  0
   -6.6284   -0.5005    7.1347 H   0  0  0  0  0  0  0  0  0  0  0  0
   -6.6626   -1.1833    3.8250 H   0  0  0  0  0  0  0  0  0  0  0  0
   -3.7030   -0.2808   -0.2099 H   0  0  0  0  0  0  0  0  0  0  0  0
   -1.4349    0.1158    0.6663 H   0  0  0  0  0  0  0  0  0  0  0  0
    0.2563   -3.0362    2.9662 H   0  0  0  0  0  0  0  0  0  0  0  0
    2.5105   -2.6222    3.8674 H   0  0  0  0  0  0  0  0  0  0  0  0
    6.4892   -0.6363    2.7256 H   0  0  0  0  0  0  0  0  0  0  0  0
    9.6728   -1.5613    2.0653 H   0  0  0  0  0  0  0  0  0  0  0  0
   10.0613    0.7383    5.2803 H   0  0  0  0  0  0  0  0  0  0  0  0
    7.2176    2.2099    6.7338 H   0  0  0  0  0  0  0  0  0  0  0  0
    4.9290    1.8722    5.8374 H   0  0  0  0  0  0  0  0  0  0  0  0
    1.7390    1.6009    3.9059 H   0  0  0  0  0  0  0  0  0  0  0  0
   -0.5224    1.2079    3.0174 H   0  0  0  0  0  0  0  0  0  0  0  0
   -2.2505   -2.5736    3.9405 H   0  0  0  0  0  0  0  0  0  0  0  0
   -4.5101   -2.9651    3.0407 H   0  0  0  0  0  0  0  0  0  0  0  0
   -6.0456    1.4061    0.4614 H   0  0  0  0  0  0  0  0  0  0  0  0
   -5.7373    3.3393    1.9873 H   0  0  0  0  0  0  0  0  0  0  0  0
   -5.9125    3.0409    5.4860 H   0  0  0  0  0  0  0  0  0  0  0  0
   -7.5000   -4.5000    0.0000 B   0  0  0  0  0  0  0  0  0  0  0  0
   -4.5000   -4.5000    0.0000 B   0  0  0  0  0  0  0  0  0  0  0  0
   -1.5000   -4.5000    0.0000 B   0  0  0  0  0  0  0  0  0  0  0  0
    1.5000   -4.5000    0.0000 B   0  0  0  0  0  0  0  0  0  0  0  0
    4.5000   -4.5000    0.0000 B   0  0  0  0  0  0  0  0  0  0  0  0
    7.5000   -4.5000    0.0000 B   0  0  0  0  0  0  0  0  0  0  0  0
   -7.5000   -3.0000    0.0000 B   0  0  0  0  0  0  0  0  0  0  0  0
   -4.5000   -3.0000    0.0000 B   0  0  0  0  0  0  0  0  0  0  0  0
   -1.5000   -3.0000    0.0000 B   0  0  0  0  0  0  0  0  0  0  0  0
    1.5000   -3.0000    0.0000 B   0  0  0  0  0  0  0  0  0  0  0  0
    4.5000   -3.0000    0.0000 B   0  0  0  0  0  0  0  0  0  0  0  0
    7.5000   -3.0000    0.0000 B   0  0  0  0  0  0  0  0  0  0  0  0
   -7.5000   -1.5000    0.0000 B   0  0  0  0  0  0  0  0  0  0  0  0
   -4.5000   -1.5000    0.0000 B   0  0  0  0  0  0  0  0  0  0  0  0
   -1.5000   -1.5000    0.0000 B   0  0  0  0  0  0  0  0  0  0  0  0
    1.5000   -1.5000    0.0000 B   0  0  0  0  0  0  0  0  0  0  0  0
    4.5000   -1.5000    0.0000 B   0  0  0  0  0  0  0  0  0  0  0  0
    7.5000   -1.5000    0.0000 B   0  0  0  0  0  0  0  0  0  0  0  0
   -7.5000    0.0000    0.0000 B   0  0  0  0  0  0  0  0  0  0  0  0
   -4.5000    0.0000    0.0000 B   0  0  0  0  0  0  0  0  0  0  0  0
   -1.5000    0.0000    0.0000 B   0  0  0  0  0  0  0  0  0  0  0  0
    1.5000    0.0000    0.0000 B   0  0  0  0  0  0  0  0  0  0  0  0
    4.5000    0.0000    0.0000 B   0  0  0  0  0  0  0  0  0  0  0  0
    7.5000    0.0000    0.0000 B   0  0  0  0  0  0  0  0  0  0  0  0
   -7.5000    1.5000    0.0000 B   0  0  0  0  0  0  0  0  0  0  0  0
   -4.5000    1.5000    0.0000 B   0  0  0  0  0  0  0  0  0  0  0  0
   -1.5000    1.5000    0.0000 B   0  0  0  0  0  0  0  0  0  0  0  0
    1.5000    1.5000    0.0000 B   0  0  0  0  0  0  0  0  0  0  0  0
    4.5000    1.5000    0.0000 B   0  0  0  0  0  0  0  0  0  0  0  0
    7.5000    1.5000    0.0000 B   0  0  0  0  0  0  0  0  0  0  0  0
   -7.5000    3.0000    0.0000 B   0  0  0  0  0  0  0  0  0  0  0  0
   -4.5000    3.0000    0.0000 B   0  0  0  0  0  0  0  0  0  0  0  0
   -1.5000    3.0000    0.0000 B   0  0  0  0  0  0  0  0  0  0  0  0
    1.5000    3.0000    0.0000 B   0  0  0  0  0  0  0  0  0  0  0  0
    4.5000    3.0000    0.0000 B   0  0  0  0  0  0  0  0  0  0  0  0
    7.5000    3.0000    0.0000 B   0  0  0  0  0  0  0  0  0  0  0  0
   -7.5000    4.5000    0.0000 B   0  0  0  0  0  0  0  0  0  0  0  0
   -4.5000    4.5000    0.0000 B   0  0  0  0  0  0  0  0  0  0  0  0
   -1.5000    4.5000    0.0000 B   0  0  0  0  0  0  0  0  0  0  0  0
    1.5000    4.5000    0.0000 B   0  0  0  0  0  0  0  0  0  0  0  0
    4.5000    4.5000    0.0000 B   0  0  0  0  0  0  0  0  0  0  0  0
    7.5000    4.5000    0.0000 B   0  0  0  0  0  0  0  0  0  0  0  0
   -6.0000   -3.7500    0.0000 B   0  0  0  0  0  0  0  0  0  0  0  0
   -3.0000   -3.7500    0.0000 B   0  0  0  0  0  0  0  0  0  0  0  0
    0.0000   -3.7500    0.0000 B   0  0  0  0  0  0  0  0  0  0  0  0
    3.0000   -3.7500    0.0000 B   0  0  0  0  0  0  0  0  0  0  0  0
    6.0000   -3.7500    0.0000 B   0  0  0  0  0  0  0  0  0  0  0  0
   -6.0000    3.7500    0.0000 B   0  0  0  0  0  0  0  0  0  0  0  0
   -3.0000    3.7500    0.0000 B   0  0  0  0  0  0  0  0  0  0  0  0
    0.0000    3.7500    0.0000 B   0  0  0  0  0  0  0  0  0  0  0  0
    3.0000    3.7500    0.0000 B   0  0  0  0  0  0  0  0  0  0  0  0
    6.0000    3.7500    0.0000 B   0  0  0  0  0  0  0  0  0  0  0  0
   -6.0000    0.0000    0.0000 B   0  0  0  0  0  0  0  0  0  0  0  0
   -8.6000   -4.5000    0.0000 H   0  0  0  0  0  0  0  0  0  0  0  0
   -8.6000   -1.5000    0.0000 H   0  0  0  0  0  0  0  0  0  0  0  0
   -8.6000    1.5000    0.0000 H   0  0  0  0  0  0  0  0  0  0  0  0
   -8.6000    4.5000    0.0000 H   0  0  0  0  0  0  0  0  0  0  0  0
    8.6000   -4.5000    0.0000 H   0  0  0  0  0  0  0  0  0  0  0  0
    8.6000   -1.5000    0.0000 H   0  0  0  0  0  0  0  0  0  0  0  0
    8.6000    1.5000    0.0000 H   0  0  0  0  0  0  0  0  0  0  0  0
  1  2  2  0  0  0  0
  2  3  1  0  0  0  0
  2  4  1  0  0  0  0
  4  5  4  0  0  0  0
  5  6  4  0  0  0  0
  6  7  1  0  0  0  0
  7  8  1  0  0  0  0
  8  9  1  0  0  0  0
  9 10  1  0  0  0  0
 10 11  1  0  0  0  0
 11 12  1  0  0  0  0
 12 13  1  0  0  0  0
 13 14  4  0  0  0  0
 14 15  4  0  0  0  0
 15 16  4  0  0  0  0
 16 17  1  0  0  0  0
 17 18  2  0  0  0  0
 18 19  1  0  0  0  0
 19 20  4  0  0  0  0
 20 21  4  0  0  0  0
 21 22  1  0  0  0  0
 22 23  2  0  0  0  0
 22 24  1  0  0  0  0
 21 25  4  0  0  0  0
 25 26  1  0  0  0  0
 25 27  4  0  0  0  0
 19 28  4  0  0  0  0
 27 28  4  0  0  0  0
 16 29  4  0  0  0  0
 13 30  4  0  0  0  0
 29 30  4  0  0  0  0
 12 31  4  0  0  0  0
  9 32  4  0  0  0  0
 31 32  4  0  0  0  0
  6 33  4  0  0  0  0
 33 34  4  0  0  0  0
  4 35  4  0  0  0  0
 34 35  4  0  0  0  0
 35 36  1  0  0  0  0
  3 37  1  0  0  0  0
  5 38  1  0  0  0  0
 10 39  1  0  0  0  0
 11 40  1  0  0  0  0
 14 41  1  0  0  0  0
 15 42  1  0  0  0  0
 20 43  1  0  0  0  0
 24 44  1  0  0  0  0
 26 45  1  0  0  0  0
 27 46  1  0  0  0  0
 28 47  1  0  0  0  0
 29 48  1  0  0  0  0
 30 49  1  0  0  0  0
 31 50  1  0  0  0  0
 32 51  1  0  0  0  0
 33 52  1  0  0  0  0
 34 53  1  0  0  0  0
 36 54  1  0  0  0  0
 55 61  1  0  0  0  0
 56 62  1  0  0  0  0
 57 63  1  0  0  0  0
 58 64  1  0  0  0  0
 59 65  1  0  0  0  0
 60 66  1  0  0  0  0
  7 67  1  0  0  0  0
 61 67  1  0  0  0  0
  8 68  1  0  0  0  0
  9 68  1  0  0  0  0
 10 68  1  0  0  0  0
 62 68  1  0  0  0  0
 11 69  1  0  0  0  0
 63 69  1  0  0  0  0
 64 70  1  0  0  0  0
 65 71  1  0  0  0  0
 66 72  1  0  0  0  0
 67 73  1  0  0  0  0
 10 74  1  0  0  0  0
 39 74  1  0  0  0  0
 68 74  1  0  0  0  0
 11 75  1  0  0  0  0
 69 75  1  0  0  0  0
 70 76  2  0  0  0  0
 71 77  2  0  0  0  0
 72 78  1  0  0  0  0
 73 79  1  0  0  0  0
 74 80  1  0  0  0  0
 75 81  2  0  0  0  0
 76 82  2  0  0  0  0
 77 83  2  0  0  0  0
 78 84  2  0  0  0  0
 79 85  1  0  0  0  0
 80 86  1  0  0  0  0
 81 87  1  0  0  0  0
 82 88  1  0  0  0  0
 83 89  1  0  0  0  0
 84 90  1  0  0  0  0
 85 91  1  0  0  0  0
 86 92  1  0  0  0  0
 87 93  1  0  0  0  0
 88 94  1  0  0  0  0
 89 95  1  0  0  0  0
 90 96  2  0  0  0  0
 55 97  1  0  0  0  0
 56 97  1  0  0  0  0
 61 97  1  0  0  0  0
 62 97  1  0  0  0  0
 56 98  1  0  0  0  0
 57 98  1  0  0  0  0
 62 98  1  0  0  0  0
 63 98  1  0  0  0  0
 57 99  1  0  0  0  0
 58 99  1  0  0  0  0
 63 99  1  0  0  0  0
 64 99  1  0  0  0  0
 58100  1  0  0  0  0
 59100  1  0  0  0  0
 64100  1  0  0  0  0
 65100  1  0  0  0  0
 59101  1  0  0  0  0
 60101  1  0  0  0  0
 65101  1  0  0  0  0
 66101  1  0  0  0  0
 85102  1  0  0  0  0
 86102  1  0  0  0  0
 91102  1  0  0  0  0
 92102  1  0  0  0  0
 86103  1  0  0  0  0
 87103  1  0  0  0  0
 92103  1  0  0  0  0
 93103  1  0  0  0  0
 87104  1  0  0  0  0
 88104  1  0  0  0  0
 93104  1  0  0  0  0
 94104  1  0  0  0  0
 88105  1  0  0  0  0
 89105  1  0  0  0  0
 94105  1  0  0  0  0
 95105  1  0  0  0  0
 89106  1  0  0  0  0
 90106  1  0  0  0  0
 95106  1  0  0  0  0
 96106  1  0  0  0  0
  7107  1  0  0  0  0
 73107  1  0  0  0  0
 74107  1  0  0  0  0
 55108  1  0  0  0  0
 67109  1  0  0  0  0
 79110  1  0  0  0  0
 91111  1  0  0  0  0
 60112  1  0  0  0  0
 72113  1  0  0  0  0
 84114  1  0  0  0  0
M  END
