 xtb: 6.7.1pre (5071a88)
          08312622043D

114170  0     0  0            999 V2000
   -6.2288    1.6305   12.1955 O   0  0  0  0  0  0  0  0  0  0  0  0
   -6.3588    0.7240   11.3898 C   0  0  0  0  0  0  0  0  0  0  0  0
   -6.5952   -0.5400   11.7758 O   0  0  0  0  0  0  0  0  0  0  0  0
   -6.2711    0.8954    9.9243 C   0  0  0  0  0  0  0  0  0  0  0  0
   -6.4466   -0.1912    9.0570 C   0  0  0  0  0  0  0  0  0  0  0  0
   -6.3344   -0.0202    7.6719 C   0  0  0  0  0  0  0  0  0  0  0  0
   -6.5299   -1.1071    6.7982 N   0  0  0  0  0  0  0  0  0  0  0  0
   -5.5677   -1.8577    6.4861 N   0  0  0  0  0  0  0  0  0  0  0  0
   -4.2779   -1.6175    6.9977 C   0  0  0  0  0  0  0  0  0  0  0  0
   -3.3891   -0.7731    6.3270 C   0  0  0  0  0  0  0  0  0  0  0  0
   -2.1025   -0.5510    6.8293 C   0  0  0  0  0  0  0  0  0  0  0  0
   -1.6651   -1.1864    8.0027 C   0  0  0  0  0  0  0  0  0  0  0  0
   -0.3145   -0.9466    8.5349 C   0  0  0  0  0  0  0  0  0  0  0  0
    0.5634   -2.0122    8.7906 C   0  0  0  0  0  0  0  0  0  0  0  0
    1.8479   -1.7819    9.2967 C   0  0  0  0  0  0  0  0  0  0  0  0
    2.2910   -0.4824    9.5526 C   0  0  0  0  0  0  0  0  0  0  0  0
    3.5763   -0.2857   10.0894 N   0  0  0  0  0  0  0  0  0  0  0  0
    4.2783    0.3988    9.3123 N   0  0  0  0  0  0  0  0  0  0  0  0
    5.5641    0.5805    9.8506 C   0  0  0  0  0  0  0  0  0  0  0  0
    6.6620   -0.0198    9.2246 C   0  0  0  0  0  0  0  0  0  0  0  0
    7.9578    0.1680    9.7255 C   0  0  0  0  0  0  0  0  0  0  0  0
    9.1260   -0.4668    9.0788 C   0  0  0  0  0  0  0  0  0  0  0  0
   10.2761   -0.3425    9.4656 O   0  0  0  0  0  0  0  0  0  0  0  0
    8.8151   -1.2097    8.0047 O   0  0  0  0  0  0  0  0  0  0  0  0
    8.1483    0.9731   10.8573 C   0  0  0  0  0  0  0  0  0  0  0  0
    9.3749    1.2146   11.4166 O   0  0  0  0  0  0  0  0  0  0  0  0
    7.0623    1.5840   11.4790 C   0  0  0  0  0  0  0  0  0  0  0  0
    5.7756    1.3912   10.9739 C   0  0  0  0  0  0  0  0  0  0  0  0
    1.4178    0.5844    9.3140 C   0  0  0  0  0  0  0  0  0  0  0  0
    0.1337    0.3560    8.8066 C   0  0  0  0  0  0  0  0  0  0  0  0
   -2.5530   -2.0609    8.6496 C   0  0  0  0  0  0  0  0  0  0  0  0
   -3.8402   -2.2803    8.1477 C   0  0  0  0  0  0  0  0  0  0  0  0
   -6.1005    1.2608    7.1577 C   0  0  0  0  0  0  0  0  0  0  0  0
   -5.9296    2.3496    8.0136 C   0  0  0  0  0  0  0  0  0  0  0  0
   -6.0094    2.1654    9.3916 C   0  0  0  0  0  0  0  0  0  0  0  0
   -5.8250    3.2846   10.1589 O   0  0  0  0  0  0  0  0  0  0  0  0
   -6.6284   -0.5005   12.7550 H   0  0  0  0  0  0  0  0  0  0  0  0
   -6.6626   -1.1833    9.4452 H   0  0  0  0  0  0  0  0  0  0  0  0
   -3.7030   -0.2808    5.4104 H   0  0  0  0  0  0  0  0  0  0  0  0
   -1.4349    0.1158    6.2866 H   0  0  0  0  0  0  0  0  0  0  0  0
    0.2563   -3.0362    8.5865 H   0  0  0  0  0  0  0  0  0  0  0  0
    2.5105   -2.6222    9.4876 H   0  0  0  0  0  0  0  0  0  0  0  0
    6.4892   -0.6363    8.3459 H   0  0  0  0  0  0  0  0  0  0  0  0
    9.6728   -1.5613    7.6855 H   0  0  0  0  0  0  0  0  0  0  0  0
   10.0613    0.7383   10.9006 H   0  0  0  0  0  0  0  0  0  0  0  0
    7.2176    2.2099   12.3541 H   0  0  0  0  0  0  0  0  0  0  0  0
    4.9290    1.8722   11.4576 H   0  0  0  0  0  0  0  0  0  0  0  0
    1.7390    1.6009    9.5261 H   0  0  0  0  0  0  0  0  0  0  0  0
   -0.5224    1.2079    8.6377 H   0  0  0  0  0  0  0  0  0  0  0  0
   -2.2505   -2.5736    9.5607 H   0  0  0  0  0  0  0  0  0  0  0  0
   -4.5101   -2.9651    8.6610 H   0  0  0  0  0  0  0  0  0  0  0  0
   -6.0456    1.4061    6.0816 H   0  0  0  0  0  0  0  0  0  0  0  0
   -5.7373    3.3393    7.6075 H   0  0  0  0  0  0  0  0  0  0  0  0
   -5.9125    3.0409   11.1063 H   0  0  0  0  0  0  0  0  0  0  0  0
   -6.3511   -2.8545   -0.3396 B   0  0  0  0  0  0  0  0  0  0  0  0
   -3.8632   -3.4276    0.8712 B   0  0  0  0  0  0  0  0  0  0  0  0
   -1.0552   -4.1651    1.9793 B   0  0  0  0  0  0  0  0  0  0  0  0
    1.6853   -4.2318    1.3549 B   0  0  0  0  0  0  0  0  0  0  0  0
    2.9703   -3.6923    0.6219 B   0  0  0  0  0  0  0  0  0  0  0  0
    5.9076   -3.8486   -0.3800 B   0  0  0  0  0  0  0  0  0  0  0  0
   -4.7612   -2.3307   -0.4078 B   0  0  0  0  0  0  0  0  0  0  0  0
   -2.6199   -2.2111    0.8442 B   0  0  0  0  0  0  0  0  0  0  0  0
   -1.2327   -2.3911    1.7792 B   0  0  0  0  0  0  0  0  0  0  0  0
    0.2814   -3.1446    1.2586 B   0  0  0  0  0  0  0  0  0  0  0  0
    3.1280   -2.1353    0.0337 B   0  0  0  0  0  0  0  0  0  0  0  0
    5.2824   -2.5807   -1.1427 B   0  0  0  0  0  0  0  0  0  0  0  0
   -4.3827   -1.0545   -1.3461 B   0  0  0  0  0  0  0  0  0  0  0  0
   -3.1924   -1.2685   -0.2398 B   0  0  0  0  0  0  0  0  0  0  0  0
   -0.7667   -0.9151    2.1471 B   0  0  0  0  0  0  0  0  0  0  0  0
    0.4341   -1.5098    0.8825 B   0  0  0  0  0  0  0  0  0  0  0  0
    4.2603   -1.2719   -0.6057 B   0  0  0  0  0  0  0  0  0  0  0  0
    6.8452   -2.4756   -0.8065 B   0  0  0  0  0  0  0  0  0  0  0  0
   -5.0072   -0.6437   -2.8496 B   0  0  0  0  0  0  0  0  0  0  0  0
   -3.1952    0.1543   -0.9257 B   0  0  0  0  0  0  0  0  0  0  0  0
   -0.9469    0.6233    2.2104 B   0  0  0  0  0  0  0  0  0  0  0  0
    0.0016   -0.0204    0.9084 B   0  0  0  0  0  0  0  0  0  0  0  0
    4.8754    0.2242   -0.5476 B   0  0  0  0  0  0  0  0  0  0  0  0
    5.8786   -1.0664   -1.1306 B   0  0  0  0  0  0  0  0  0  0  0  0
   -5.7672    0.8535   -2.9176 B   0  0  0  0  0  0  0  0  0  0  0  0
   -2.8971    1.6282   -0.7083 B   0  0  0  0  0  0  0  0  0  0  0  0
   -1.2399    2.1332    2.0889 B   0  0  0  0  0  0  0  0  0  0  0  0
    0.1883    1.5499    1.0540 B   0  0  0  0  0  0  0  0  0  0  0  0
    4.2581    1.5841    0.0647 B   0  0  0  0  0  0  0  0  0  0  0  0
    6.3075    0.4397   -1.6258 B   0  0  0  0  0  0  0  0  0  0  0  0
   -5.7341    1.7554   -1.4938 B   0  0  0  0  0  0  0  0  0  0  0  0
   -3.3469    2.9740   -0.1746 B   0  0  0  0  0  0  0  0  0  0  0  0
   -1.6646    3.6160    1.7973 B   0  0  0  0  0  0  0  0  0  0  0  0
   -0.0590    3.1640    1.3235 B   0  0  0  0  0  0  0  0  0  0  0  0
    2.9656    2.2589    0.6844 B   0  0  0  0  0  0  0  0  0  0  0  0
    5.7919    1.6725   -0.6985 B   0  0  0  0  0  0  0  0  0  0  0  0
   -6.6389    2.8000   -0.8422 B   0  0  0  0  0  0  0  0  0  0  0  0
   -4.4746    3.8873    0.5879 B   0  0  0  0  0  0  0  0  0  0  0  0
   -1.7771    5.1752    1.2154 B   0  0  0  0  0  0  0  0  0  0  0  0
    1.1754    4.4066    1.3290 B   0  0  0  0  0  0  0  0  0  0  0  0
    2.5938    3.9229    0.8796 B   0  0  0  0  0  0  0  0  0  0  0  0
    5.3509    2.9860   -0.0541 B   0  0  0  0  0  0  0  0  0  0  0  0
   -5.3190   -3.6348    0.4165 B   0  0  0  0  0  0  0  0  0  0  0  0
   -2.4877   -3.6329    1.6055 B   0  0  0  0  0  0  0  0  0  0  0  0
    0.3596   -4.7213    1.9063 B   0  0  0  0  0  0  0  0  0  0  0  0
    1.7215   -2.4162    0.7345 B   0  0  0  0  0  0  0  0  0  0  0  0
    4.3387   -3.4800   -0.0729 B   0  0  0  0  0  0  0  0  0  0  0  0
   -5.0953    2.8472   -0.3735 B   0  0  0  0  0  0  0  0  0  0  0  0
   -3.0345    4.3187    0.9326 B   0  0  0  0  0  0  0  0  0  0  0  0
   -0.2869    4.8951    1.4426 B   0  0  0  0  0  0  0  0  0  0  0  0
    1.4616    2.5482    0.9924 B   0  0  0  0  0  0  0  0  0  0  0  0
    4.0784    3.6198    0.5106 B   0  0  0  0  0  0  0  0  0  0  0  0
   -4.5957    0.5913   -1.8415 B   0  0  0  0  0  0  0  0  0  0  0  0
   -7.3684   -2.5027   -0.8103 H   0  0  0  0  0  0  0  0  0  0  0  0
   -4.9591   -1.3760   -3.7739 H   0  0  0  0  0  0  0  0  0  0  0  0
   -6.3246    1.2608   -3.8715 H   0  0  0  0  0  0  0  0  0  0  0  0
   -7.6134    3.4017   -0.5976 H   0  0  0  0  0  0  0  0  0  0  0  0
    6.3612   -4.9354   -0.3602 H   0  0  0  0  0  0  0  0  0  0  0  0
    8.0163   -2.4682   -0.9061 H   0  0  0  0  0  0  0  0  0  0  0  0
    6.9392    0.6146   -2.6128 H   0  0  0  0  0  0  0  0  0  0  0  0
  1  2  2  0  0  0  0
  2  3  1  0  0  0  0
  2  4  1  0  0  0  0
  4  5  4  0  0  0  0
  5  6  4  0  0  0  0
  6  7  1  0  0  0  0
  7  8  2  0  0  0  0
  8  9  1  0  0  0  0
  9 10  4  0  0  0  0
 10 11  4  0  0  0  0
 11 12  4  0  0  0  0
 12 13  1  0  0  0  0
 13 14  4  0  0  0  0
 14 15  4  0  0  0  0
 15 16  4  0  0  0  0
 16 17  1  0  0  0  0
 17 18  2  0  0  0  0
 18 19  1  0  0  0  0
 19 20  4  0  0  0  0
 20 21  4  0  0  0  0
 21 22  1  0  0  0  0
 22 23  2  0  0  0  0
 22 24  1  0  0  0  0
 21 25  4  0  0  0  0
 25 26  1  0  0  0  0
 25 27  4  0  0  0  0
 19 28  4  0  0  0  0
 27 28  4  0  0  0  0
 16 29  4  0  0  0  0
 13 30  4  0  0  0  0
 29 30  4  0  0  0  0
 12 31  4  0  0  0  0
  9 32  4  0  0  0  0
 31 32  4  0  0  0  0
  6 33  4  0  0  0  0
 33 34  4  0  0  0  0
  4 35  4  0  0  0  0
 34 35  4  0  0  0  0
 35 36  1  0  0  0  0
  3 37  1  0  0  0  0
  5 38  1  0  0  0  0
 10 39  1  0  0  0  0
 11 40  1  0  0  0  0
 14 41  1  0  0  0  0
 15 42  1  0  0  0  0
 20 43  1  0  0  0  0
 24 44  1  0  0  0  0
 26 45  1  0  0  0  0
 27 46  1  0  0  0  0
 28 47  1  0  0  0  0
 29 48  1  0  0  0  0
 30 49  1  0  0  0  0
 31 50  1  0  0  0  0
 32 51  1  0  0  0  0
 33 52  1  0  0  0  0
 34 53  1  0  0  0  0
 36 54  1  0  0  0  0
 58 59  1  0  0  0  0
 55 61  1  0  0  0  0
 56 61  1  0  0  0  0
 56 62  1  0  0  0  0
 57 63  1  0  0  0  0
 62 63  1  0  0  0  0
 57 64  1  0  0  0  0
 58 64  1  0  0  0  0
 63 64  1  0  0  0  0
 59 65  1  0  0  0  0
 60 66  1  0  0  0  0
 61 67  1  0  0  0  0
 61 68  1  0  0  0  0
 62 68  1  0  0  0  0
 67 68  1  0  0  0  0
 63 69  1  0  0  0  0
 64 70  1  0  0  0  0
 69 70  1  0  0  0  0
 65 71  1  0  0  0  0
 66 71  1  0  0  0  0
 60 72  1  0  0  0  0
 66 72  1  0  0  0  0
 67 73  1  0  0  0  0
 67 74  1  0  0  0  0
 68 74  1  0  0  0  0
 69 75  1  0  0  0  0
 69 76  1  0  0  0  0
 70 76  1  0  0  0  0
 75 76  1  0  0  0  0
 71 77  1  0  0  0  0
 66 78  1  0  0  0  0
 71 78  1  0  0  0  0
 72 78  1  0  0  0  0
 77 78  1  0  0  0  0
 73 79  1  0  0  0  0
 74 80  1  0  0  0  0
 75 81  1  0  0  0  0
 75 82  1  0  0  0  0
 76 82  1  0  0  0  0
 81 82  1  0  0  0  0
 77 83  1  0  0  0  0
 77 84  1  0  0  0  0
 78 84  1  0  0  0  0
 79 85  1  0  0  0  0
 80 86  2  0  0  0  0
 81 87  1  0  0  0  0
 81 88  1  0  0  0  0
 82 88  1  0  0  0  0
 87 88  1  0  0  0  0
 83 89  1  0  0  0  0
 77 90  1  0  0  0  0
 83 90  1  0  0  0  0
 84 90  1  0  0  0  0
 85 91  1  0  0  0  0
 86 92  1  0  0  0  0
 87 93  1  0  0  0  0
 88 94  1  0  0  0  0
 89 95  1  0  0  0  0
 94 95  1  0  0  0  0
 83 96  1  0  0  0  0
 90 96  1  0  0  0  0
 55 97  2  0  0  0  0
 56 97  1  0  0  0  0
 61 97  1  0  0  0  0
 56 98  1  0  0  0  0
 57 98  1  0  0  0  0
 62 98  1  0  0  0  0
 63 98  1  0  0  0  0
 57 99  1  0  0  0  0
 58 99  1  0  0  0  0
 64 99  1  0  0  0  0
 58100  1  0  0  0  0
 59100  1  0  0  0  0
 64100  1  0  0  0  0
 65100  1  0  0  0  0
 70100  1  0  0  0  0
 59101  1  0  0  0  0
 60101  1  0  0  0  0
 65101  1  0  0  0  0
 66101  1  0  0  0  0
 85102  1  0  0  0  0
 86102  1  0  0  0  0
 91102  1  0  0  0  0
 92102  1  0  0  0  0
 86103  1  0  0  0  0
 87103  1  0  0  0  0
 92103  1  0  0  0  0
 93103  1  0  0  0  0
 87104  1  0  0  0  0
 88104  1  0  0  0  0
 93104  1  0  0  0  0
 94104  1  0  0  0  0
 82105  1  0  0  0  0
 88105  1  0  0  0  0
 89105  1  0  0  0  0
 94105  1  0  0  0  0
 95105  1  0  0  0  0
 83106  1  0  0  0  0
 89106  1  0  0  0  0
 95106  1  0  0  0  0
 96106  1  0  0  0  0
 67107  1  0  0  0  0
 73107  1  0  0  0  0
 74107  1  0  0  0  0
 79107  1  0  0  0  0
 85107  1  0  0  0  0
 55108  1  0  0  0  0
 73109  1  0  0  0  0
 79110  1  0  0  0  0
 91111  1  0  0  0  0
 60112  1  0  0  0  0
 72113  1  0  0  0  0
 84114  1  0  0  0  0
M  END
