 xtb: 6.7.1pre (5071a88)
          09012620283D

109147  0     0  0            999 V2000
   -6.2288    1.6305   12.9608 O   0  0  0  0  0  0  0  0  0  0  0  0
   -6.3588    0.7240   12.1551 C   0  0  0  0  0  0  0  0  0  0  0  0
   -6.5952   -0.5400   12.5411 O   0  0  0  0  0  0  0  0  0  0  0  0
   -6.2711    0.8954   10.6896 C   0  0  0  0  0  0  0  0  0  0  0  0
   -6.4466   -0.1912    9.8223 C   0  0  0  0  0  0  0  0  0  0  0  0
   -6.3344   -0.0202    8.4372 C   0  0  0  0  0  0  0  0  0  0  0  0
   -6.5299   -1.1071    7.5635 N   0  0  0  0  0  0  0  0  0  0  0  0
   -5.5677   -1.8577    7.2514 N   0  0  0  0  0  0  0  0  0  0  0  0
   -4.2779   -1.6175    7.7630 C   0  0  0  0  0  0  0  0  0  0  0  0
   -3.3891   -0.7731    7.0923 C   0  0  0  0  0  0  0  0  0  0  0  0
   -2.1025   -0.5510    7.5946 C   0  0  0  0  0  0  0  0  0  0  0  0
   -1.6651   -1.1864    8.7680 C   0  0  0  0  0  0  0  0  0  0  0  0
   -0.3145   -0.9466    9.3001 C   0  0  0  0  0  0  0  0  0  0  0  0
    0.5634   -2.0122    9.5559 C   0  0  0  0  0  0  0  0  0  0  0  0
    1.8479   -1.7819   10.0620 C   0  0  0  0  0  0  0  0  0  0  0  0
    2.2910   -0.4824   10.3178 C   0  0  0  0  0  0  0  0  0  0  0  0
    3.5763   -0.2857   10.8546 N   0  0  0  0  0  0  0  0  0  0  0  0
    4.2783    0.3988   10.0776 N   0  0  0  0  0  0  0  0  0  0  0  0
    5.5641    0.5805   10.6159 C   0  0  0  0  0  0  0  0  0  0  0  0
    6.6620   -0.0198    9.9899 C   0  0  0  0  0  0  0  0  0  0  0  0
    7.9578    0.1680   10.4908 C   0  0  0  0  0  0  0  0  0  0  0  0
    9.1260   -0.4668    9.8441 C   0  0  0  0  0  0  0  0  0  0  0  0
   10.2761   -0.3425   10.2309 O   0  0  0  0  0  0  0  0  0  0  0  0
    8.8151   -1.2097    8.7700 O   0  0  0  0  0  0  0  0  0  0  0  0
    8.1483    0.9731   11.6226 C   0  0  0  0  0  0  0  0  0  0  0  0
    9.3749    1.2146   12.1819 O   0  0  0  0  0  0  0  0  0  0  0  0
    7.0623    1.5840   12.2443 C   0  0  0  0  0  0  0  0  0  0  0  0
    5.7756    1.3912   11.7391 C   0  0  0  0  0  0  0  0  0  0  0  0
    1.4178    0.5844   10.0793 C   0  0  0  0  0  0  0  0  0  0  0  0
    0.1337    0.3560    9.5719 C   0  0  0  0  0  0  0  0  0  0  0  0
   -2.5530   -2.0609    9.4149 C   0  0  0  0  0  0  0  0  0  0  0  0
   -3.8402   -2.2803    8.9130 C   0  0  0  0  0  0  0  0  0  0  0  0
   -6.1005    1.2608    7.9230 C   0  0  0  0  0  0  0  0  0  0  0  0
   -5.9296    2.3496    8.7789 C   0  0  0  0  0  0  0  0  0  0  0  0
   -6.0094    2.1654   10.1569 C   0  0  0  0  0  0  0  0  0  0  0  0
   -5.8250    3.2846   10.9242 O   0  0  0  0  0  0  0  0  0  0  0  0
   -6.6284   -0.5005   13.5203 H   0  0  0  0  0  0  0  0  0  0  0  0
   -6.6626   -1.1833   10.2105 H   0  0  0  0  0  0  0  0  0  0  0  0
   -3.7030   -0.2808    6.1757 H   0  0  0  0  0  0  0  0  0  0  0  0
   -1.4349    0.1158    7.0518 H   0  0  0  0  0  0  0  0  0  0  0  0
    0.2563   -3.0362    9.3518 H   0  0  0  0  0  0  0  0  0  0  0  0
    2.5105   -2.6222   10.2529 H   0  0  0  0  0  0  0  0  0  0  0  0
    6.4892   -0.6363    9.1112 H   0  0  0  0  0  0  0  0  0  0  0  0
    9.6728   -1.5613    8.4508 H   0  0  0  0  0  0  0  0  0  0  0  0
   10.0613    0.7383   11.6658 H   0  0  0  0  0  0  0  0  0  0  0  0
    7.2176    2.2099   13.1193 H   0  0  0  0  0  0  0  0  0  0  0  0
    4.9290    1.8722   12.2229 H   0  0  0  0  0  0  0  0  0  0  0  0
    1.7390    1.6009   10.2914 H   0  0  0  0  0  0  0  0  0  0  0  0
   -0.5224    1.2079    9.4030 H   0  0  0  0  0  0  0  0  0  0  0  0
   -2.2505   -2.5736   10.3260 H   0  0  0  0  0  0  0  0  0  0  0  0
   -4.5101   -2.9651    9.4262 H   0  0  0  0  0  0  0  0  0  0  0  0
   -6.0456    1.4061    6.8469 H   0  0  0  0  0  0  0  0  0  0  0  0
   -5.7373    3.3393    8.3728 H   0  0  0  0  0  0  0  0  0  0  0  0
   -5.9125    3.0409   11.8716 H   0  0  0  0  0  0  0  0  0  0  0  0
   -4.7806   -2.6045    0.3173 B   0  0  0  0  0  0  0  0  0  0  0  0
   -4.5695   -1.3567   -0.6480 B   0  0  0  0  0  0  0  0  0  0  0  0
   -4.4639   -0.2474   -1.8829 B   0  0  0  0  0  0  0  0  0  0  0  0
   -3.3965   -2.6620   -0.5028 B   0  0  0  0  0  0  0  0  0  0  0  0
   -3.0380    0.1776   -1.4048 B   0  0  0  0  0  0  0  0  0  0  0  0
   -4.3909    0.3426   -0.1924 B   0  0  0  0  0  0  0  0  0  0  0  0
   -5.0310    1.4031    0.8192 B   0  0  0  0  0  0  0  0  0  0  0  0
   -4.6201    2.9864    0.9976 B   0  0  0  0  0  0  0  0  0  0  0  0
   -2.8089    0.5128    0.1995 B   0  0  0  0  0  0  0  0  0  0  0  0
   -3.2186    3.2275    1.7932 B   0  0  0  0  0  0  0  0  0  0  0  0
   -2.1611   -3.7758   -0.5843 B   0  0  0  0  0  0  0  0  0  0  0  0
   -1.8769   -2.2481   -0.9334 B   0  0  0  0  0  0  0  0  0  0  0  0
   -1.6972   -0.6133   -0.8358 B   0  0  0  0  0  0  0  0  0  0  0  0
   -0.5844   -3.2190   -0.8350 B   0  0  0  0  0  0  0  0  0  0  0  0
   -0.2198   -0.1484   -0.3118 B   0  0  0  0  0  0  0  0  0  0  0  0
   -1.3950    0.0358    0.8521 B   0  0  0  0  0  0  0  0  0  0  0  0
   -1.7757    1.6621    0.7592 B   0  0  0  0  0  0  0  0  0  0  0  0
   -1.8975    3.2370    0.8826 B   0  0  0  0  0  0  0  0  0  0  0  0
   -0.2153    1.0372    1.0697 B   0  0  0  0  0  0  0  0  0  0  0  0
   -0.7521    4.3480    0.5584 B   0  0  0  0  0  0  0  0  0  0  0  0
    0.8265   -4.1129   -0.7400 B   0  0  0  0  0  0  0  0  0  0  0  0
    0.9251   -2.5054   -0.7497 B   0  0  0  0  0  0  0  0  0  0  0  0
    1.2144   -0.9490   -0.5870 B   0  0  0  0  0  0  0  0  0  0  0  0
    2.2007   -3.4026   -0.1682 B   0  0  0  0  0  0  0  0  0  0  0  0
    2.6220   -0.1957   -0.2930 B   0  0  0  0  0  0  0  0  0  0  0  0
    1.2341    0.5516    0.1426 B   0  0  0  0  0  0  0  0  0  0  0  0
    1.1248    2.0009    1.0430 B   0  0  0  0  0  0  0  0  0  0  0  0
    0.5366    3.4372    0.6180 B   0  0  0  0  0  0  0  0  0  0  0  0
    2.4580    1.6726    0.0875 B   0  0  0  0  0  0  0  0  0  0  0  0
    1.2136    3.0171   -0.8530 B   0  0  0  0  0  0  0  0  0  0  0  0
    3.2202   -3.8508    1.1044 B   0  0  0  0  0  0  0  0  0  0  0  0
    3.6240   -2.6535    0.0637 B   0  0  0  0  0  0  0  0  0  0  0  0
    4.0250   -1.1219   -0.2366 B   0  0  0  0  0  0  0  0  0  0  0  0
    4.4174   -2.8355    1.4203 B   0  0  0  0  0  0  0  0  0  0  0  0
    5.3636   -0.2419   -0.6898 B   0  0  0  0  0  0  0  0  0  0  0  0
    4.1041    0.5310   -0.0135 B   0  0  0  0  0  0  0  0  0  0  0  0
    4.0181    2.3218   -0.0338 B   0  0  0  0  0  0  0  0  0  0  0  0
    2.8218    3.0968   -0.9129 B   0  0  0  0  0  0  0  0  0  0  0  0
    5.4220    1.4583   -0.1853 B   0  0  0  0  0  0  0  0  0  0  0  0
    4.2961    3.5501   -1.0140 B   0  0  0  0  0  0  0  0  0  0  0  0
   -5.1687   -3.0949    1.3107 H   0  0  0  0  0  0  0  0  0  0  0  0
   -5.7161   -2.0764   -0.3935 H   0  0  0  0  0  0  0  0  0  0  0  0
   -5.2640   -0.1207   -2.7417 H   0  0  0  0  0  0  0  0  0  0  0  0
   -5.7711    1.0074    1.6646 H   0  0  0  0  0  0  0  0  0  0  0  0
   -5.3645    3.8431    0.6720 H   0  0  0  0  0  0  0  0  0  0  0  0
   -3.2343    3.2250    2.9757 H   0  0  0  0  0  0  0  0  0  0  0  0
   -2.3593   -4.9262   -0.4732 H   0  0  0  0  0  0  0  0  0  0  0  0
   -0.8965    5.4755    0.2443 H   0  0  0  0  0  0  0  0  0  0  0  0
    0.8223   -5.2498   -1.0233 H   0  0  0  0  0  0  0  0  0  0  0  0
    0.5537    2.6943   -1.7837 H   0  0  0  0  0  0  0  0  0  0  0  0
    2.9703   -4.8176    1.7172 H   0  0  0  0  0  0  0  0  0  0  0  0
    5.2631   -2.5125    2.1565 H   0  0  0  0  0  0  0  0  0  0  0  0
    6.3848   -0.6467   -1.0956 H   0  0  0  0  0  0  0  0  0  0  0  0
    6.5032    1.8382    0.0650 H   0  0  0  0  0  0  0  0  0  0  0  0
    5.1389    4.2524   -1.4154 H   0  0  0  0  0  0  0  0  0  0  0  0
  1  2  2  0  0  0  0
  2  3  1  0  0  0  0
  2  4  1  0  0  0  0
  4  5  4  0  0  0  0
  5  6  4  0  0  0  0
  6  7  1  0  0  0  0
  7  8  2  0  0  0  0
  8  9  1  0  0  0  0
  9 10  4  0  0  0  0
 10 11  4  0  0  0  0
 11 12  4  0  0  0  0
 12 13  1  0  0  0  0
 13 14  4  0  0  0  0
 14 15  4  0  0  0  0
 15 16  4  0  0  0  0
 16 17  1  0  0  0  0
 17 18  2  0  0  0  0
 18 19  1  0  0  0  0
 19 20  4  0  0  0  0
 20 21  4  0  0  0  0
 21 22  1  0  0  0  0
 22 23  2  0  0  0  0
 22 24  1  0  0  0  0
 21 25  4  0  0  0  0
 25 26  1  0  0  0  0
 25 27  4  0  0  0  0
 19 28  4  0  0  0  0
 27 28  4  0  0  0  0
 16 29  4  0  0  0  0
 13 30  4  0  0  0  0
 29 30  4  0  0  0  0
 12 31  4  0  0  0  0
  9 32  4  0  0  0  0
 31 32  4  0  0  0  0
  6 33  4  0  0  0  0
 33 34  4  0  0  0  0
  4 35  4  0  0  0  0
 34 35  4  0  0  0  0
 35 36  1  0  0  0  0
  3 37  1  0  0  0  0
  5 38  1  0  0  0  0
 10 39  1  0  0  0  0
 11 40  1  0  0  0  0
 14 41  1  0  0  0  0
 15 42  1  0  0  0  0
 20 43  1  0  0  0  0
 24 44  1  0  0  0  0
 26 45  1  0  0  0  0
 27 46  1  0  0  0  0
 28 47  1  0  0  0  0
 29 48  1  0  0  0  0
 30 49  1  0  0  0  0
 31 50  1  0  0  0  0
 32 51  1  0  0  0  0
 33 52  1  0  0  0  0
 34 53  1  0  0  0  0
 36 54  1  0  0  0  0
 55 56  1  0  0  0  0
 56 57  1  0  0  0  0
 55 58  1  0  0  0  0
 56 58  1  0  0  0  0
 57 59  1  0  0  0  0
 56 60  1  0  0  0  0
 57 60  1  0  0  0  0
 59 60  1  0  0  0  0
 60 61  1  0  0  0  0
 61 62  1  0  0  0  0
 59 63  1  0  0  0  0
 60 63  1  0  0  0  0
 62 64  1  0  0  0  0
 58 65  1  0  0  0  0
 58 66  1  0  0  0  0
 65 66  1  0  0  0  0
 59 67  1  0  0  0  0
 63 67  1  0  0  0  0
 66 67  1  0  0  0  0
 65 68  1  0  0  0  0
 66 68  1  0  0  0  0
 67 69  1  0  0  0  0
 63 70  1  0  0  0  0
 67 70  1  0  0  0  0
 69 70  1  0  0  0  0
 63 71  1  0  0  0  0
 70 71  1  0  0  0  0
 64 72  1  0  0  0  0
 71 72  1  0  0  0  0
 69 73  1  0  0  0  0
 70 73  1  0  0  0  0
 71 73  1  0  0  0  0
 72 74  1  0  0  0  0
 68 75  1  0  0  0  0
 68 76  1  0  0  0  0
 75 76  1  0  0  0  0
 69 77  1  0  0  0  0
 76 77  1  0  0  0  0
 75 78  1  0  0  0  0
 76 78  1  0  0  0  0
 77 79  1  0  0  0  0
 69 80  1  0  0  0  0
 73 80  1  0  0  0  0
 77 80  1  0  0  0  0
 79 80  1  0  0  0  0
 73 81  1  0  0  0  0
 80 81  1  0  0  0  0
 74 82  1  0  0  0  0
 81 82  1  0  0  0  0
 79 83  1  0  0  0  0
 80 83  1  0  0  0  0
 81 83  1  0  0  0  0
 82 84  1  0  0  0  0
 78 85  1  0  0  0  0
 78 86  1  0  0  0  0
 85 86  1  0  0  0  0
 79 87  1  0  0  0  0
 86 87  1  0  0  0  0
 85 88  1  0  0  0  0
 86 88  1  0  0  0  0
 87 89  1  0  0  0  0
 79 90  1  0  0  0  0
 87 90  1  0  0  0  0
 89 90  1  0  0  0  0
 83 91  1  0  0  0  0
 90 91  1  0  0  0  0
 83 92  1  0  0  0  0
 84 92  1  0  0  0  0
 91 92  1  0  0  0  0
 89 93  1  0  0  0  0
 90 93  1  0  0  0  0
 91 93  1  0  0  0  0
 91 94  1  0  0  0  0
 92 94  1  0  0  0  0
 55 95  1  0  0  0  0
 55 96  1  0  0  0  0
 56 96  1  0  0  0  0
 57 97  1  0  0  0  0
 61 98  1  0  0  0  0
 62 99  1  0  0  0  0
 64100  1  0  0  0  0
 65101  1  0  0  0  0
 74102  1  0  0  0  0
 75103  1  0  0  0  0
 84104  1  0  0  0  0
 85105  1  0  0  0  0
 88106  1  0  0  0  0
 89107  1  0  0  0  0
 93108  1  0  0  0  0
 94109  1  0  0  0  0
M  END
