 xtb: 6.7.1pre (5071a88)
          08312622043D

114169  0     0  0            999 V2000
    2.0091   -0.7064   11.2473 C   0  0  0  0  0  0  0  0  0  0  0  0
    1.9443   -0.5766    9.9084 C   0  0  0  0  0  0  0  0  0  0  0  0
    3.1943   -0.3878    9.1282 C   0  0  0  0  0  0  0  0  0  0  0  0
    4.3433   -1.1533    9.3796 C   0  0  0  0  0  0  0  0  0  0  0  0
    5.5022   -0.9769    8.6161 C   0  0  0  0  0  0  0  0  0  0  0  0
    5.5274   -0.0354    7.5819 C   0  0  0  0  0  0  0  0  0  0  0  0
    6.7770    0.1164    6.7984 C   0  0  0  0  0  0  0  0  0  0  0  0
    7.8059   -0.5114    6.9683 O   0  0  0  0  0  0  0  0  0  0  0  0
    6.6810    1.0505    5.8358 O   0  0  0  0  0  0  0  0  0  0  0  0
    4.3844    0.7244    7.3141 C   0  0  0  0  0  0  0  0  0  0  0  0
    3.2271    0.5444    8.0801 C   0  0  0  0  0  0  0  0  0  0  0  0
    0.5867   -0.6025    9.3056 C   0  0  0  0  0  0  0  0  0  0  0  0
   -0.2677    0.4925    9.5183 C   0  0  0  0  0  0  0  0  0  0  0  0
   -1.5627    0.5686    8.9591 C   0  0  0  0  0  0  0  0  0  0  0  0
   -2.0252   -0.5216    8.1901 C   0  0  0  0  0  0  0  0  0  0  0  0
   -1.1485   -1.6079    7.9654 C   0  0  0  0  0  0  0  0  0  0  0  0
    0.1416   -1.6694    8.5165 C   0  0  0  0  0  0  0  0  0  0  0  0
    1.0086   -2.8621    8.2193 C   0  0  0  0  0  0  0  0  0  0  0  0
   -3.4245   -0.5476    7.5588 C   0  0  0  0  0  0  0  0  0  0  0  0
   -3.2857   -0.3177    6.0375 C   0  0  0  0  0  0  0  0  0  0  0  0
   -4.1333   -1.9047    7.7832 C   0  0  0  0  0  0  0  0  0  0  0  0
   -4.3454    0.5309    8.1716 C   0  0  0  0  0  0  0  0  0  0  0  0
   -3.6461    1.8741    8.2924 C   0  0  0  0  0  0  0  0  0  0  0  0
   -2.4248    1.8075    9.2360 C   0  0  0  0  0  0  0  0  0  0  0  0
   -2.8981    1.7623   10.7058 C   0  0  0  0  0  0  0  0  0  0  0  0
   -1.6345    3.1203    9.0197 C   0  0  0  0  0  0  0  0  0  0  0  0
    2.9480   -0.6683   11.7902 H   0  0  0  0  0  0  0  0  0  0  0  0
    1.1147   -0.8454   11.8490 H   0  0  0  0  0  0  0  0  0  0  0  0
    4.3439   -1.9069   10.1641 H   0  0  0  0  0  0  0  0  0  0  0  0
    6.3815   -1.5816    8.8296 H   0  0  0  0  0  0  0  0  0  0  0  0
    7.5638    1.0395    5.4104 H   0  0  0  0  0  0  0  0  0  0  0  0
    4.3785    1.4578    6.5116 H   0  0  0  0  0  0  0  0  0  0  0  0
    2.3489    1.1450    7.8503 H   0  0  0  0  0  0  0  0  0  0  0  0
    0.0990    1.3074   10.1399 H   0  0  0  0  0  0  0  0  0  0  0  0
   -1.4727   -2.4351    7.3365 H   0  0  0  0  0  0  0  0  0  0  0  0
    1.4690   -3.2489    9.1341 H   0  0  0  0  0  0  0  0  0  0  0  0
    0.4238   -3.6826    7.7894 H   0  0  0  0  0  0  0  0  0  0  0  0
    1.7886   -2.5935    7.5003 H   0  0  0  0  0  0  0  0  0  0  0  0
   -2.7457    0.6078    5.8099 H   0  0  0  0  0  0  0  0  0  0  0  0
   -4.2682   -0.2608    5.5551 H   0  0  0  0  0  0  0  0  0  0  0  0
   -2.7346   -1.1339    5.5555 H   0  0  0  0  0  0  0  0  0  0  0  0
   -4.1598   -2.1664    8.8476 H   0  0  0  0  0  0  0  0  0  0  0  0
   -3.6429   -2.7278    7.2530 H   0  0  0  0  0  0  0  0  0  0  0  0
   -5.1679   -1.8705    7.4213 H   0  0  0  0  0  0  0  0  0  0  0  0
   -5.2494    0.6483    7.5599 H   0  0  0  0  0  0  0  0  0  0  0  0
   -4.6954    0.2150    9.1625 H   0  0  0  0  0  0  0  0  0  0  0  0
   -3.3391    2.2129    7.2948 H   0  0  0  0  0  0  0  0  0  0  0  0
   -4.3629    2.6231    8.6536 H   0  0  0  0  0  0  0  0  0  0  0  0
   -3.4265    0.8312   10.9381 H   0  0  0  0  0  0  0  0  0  0  0  0
   -3.5730    2.5963   10.9297 H   0  0  0  0  0  0  0  0  0  0  0  0
   -2.0546    1.8314   11.4028 H   0  0  0  0  0  0  0  0  0  0  0  0
   -0.8298    3.2518    9.7507 H   0  0  0  0  0  0  0  0  0  0  0  0
   -2.2914    3.9931    9.1158 H   0  0  0  0  0  0  0  0  0  0  0  0
   -1.1823    3.1504    8.0213 H   0  0  0  0  0  0  0  0  0  0  0  0
   -6.3511   -2.8545   -0.3396 B   0  0  0  0  0  0  0  0  0  0  0  0
   -3.8632   -3.4276    0.8712 B   0  0  0  0  0  0  0  0  0  0  0  0
   -1.0552   -4.1651    1.9793 B   0  0  0  0  0  0  0  0  0  0  0  0
    1.6853   -4.2318    1.3549 B   0  0  0  0  0  0  0  0  0  0  0  0
    2.9703   -3.6923    0.6219 B   0  0  0  0  0  0  0  0  0  0  0  0
    5.9076   -3.8486   -0.3800 B   0  0  0  0  0  0  0  0  0  0  0  0
   -4.7612   -2.3307   -0.4078 B   0  0  0  0  0  0  0  0  0  0  0  0
   -2.6199   -2.2111    0.8442 B   0  0  0  0  0  0  0  0  0  0  0  0
   -1.2327   -2.3911    1.7792 B   0  0  0  0  0  0  0  0  0  0  0  0
    0.2814   -3.1446    1.2586 B   0  0  0  0  0  0  0  0  0  0  0  0
    3.1280   -2.1353    0.0337 B   0  0  0  0  0  0  0  0  0  0  0  0
    5.2824   -2.5807   -1.1427 B   0  0  0  0  0  0  0  0  0  0  0  0
   -4.3827   -1.0545   -1.3461 B   0  0  0  0  0  0  0  0  0  0  0  0
   -3.1924   -1.2685   -0.2398 B   0  0  0  0  0  0  0  0  0  0  0  0
   -0.7667   -0.9151    2.1471 B   0  0  0  0  0  0  0  0  0  0  0  0
    0.4341   -1.5098    0.8825 B   0  0  0  0  0  0  0  0  0  0  0  0
    4.2603   -1.2719   -0.6057 B   0  0  0  0  0  0  0  0  0  0  0  0
    6.8452   -2.4756   -0.8065 B   0  0  0  0  0  0  0  0  0  0  0  0
   -5.0072   -0.6437   -2.8496 B   0  0  0  0  0  0  0  0  0  0  0  0
   -3.1952    0.1543   -0.9257 B   0  0  0  0  0  0  0  0  0  0  0  0
   -0.9469    0.6233    2.2104 B   0  0  0  0  0  0  0  0  0  0  0  0
    0.0016   -0.0204    0.9084 B   0  0  0  0  0  0  0  0  0  0  0  0
    4.8754    0.2242   -0.5476 B   0  0  0  0  0  0  0  0  0  0  0  0
    5.8786   -1.0664   -1.1306 B   0  0  0  0  0  0  0  0  0  0  0  0
   -5.7672    0.8535   -2.9176 B   0  0  0  0  0  0  0  0  0  0  0  0
   -2.8971    1.6282   -0.7083 B   0  0  0  0  0  0  0  0  0  0  0  0
   -1.2399    2.1332    2.0889 B   0  0  0  0  0  0  0  0  0  0  0  0
    0.1883    1.5499    1.0540 B   0  0  0  0  0  0  0  0  0  0  0  0
    4.2581    1.5841    0.0647 B   0  0  0  0  0  0  0  0  0  0  0  0
    6.3075    0.4397   -1.6258 B   0  0  0  0  0  0  0  0  0  0  0  0
   -5.7341    1.7554   -1.4938 B   0  0  0  0  0  0  0  0  0  0  0  0
   -3.3469    2.9740   -0.1746 B   0  0  0  0  0  0  0  0  0  0  0  0
   -1.6646    3.6160    1.7973 B   0  0  0  0  0  0  0  0  0  0  0  0
   -0.0590    3.1640    1.3235 B   0  0  0  0  0  0  0  0  0  0  0  0
    2.9656    2.2589    0.6844 B   0  0  0  0  0  0  0  0  0  0  0  0
    5.7919    1.6725   -0.6985 B   0  0  0  0  0  0  0  0  0  0  0  0
   -6.6389    2.8000   -0.8422 B   0  0  0  0  0  0  0  0  0  0  0  0
   -4.4746    3.8873    0.5879 B   0  0  0  0  0  0  0  0  0  0  0  0
   -1.7771    5.1752    1.2154 B   0  0  0  0  0  0  0  0  0  0  0  0
    1.1754    4.4066    1.3290 B   0  0  0  0  0  0  0  0  0  0  0  0
    2.5938    3.9229    0.8796 B   0  0  0  0  0  0  0  0  0  0  0  0
    5.3509    2.9860   -0.0541 B   0  0  0  0  0  0  0  0  0  0  0  0
   -5.3190   -3.6348    0.4165 B   0  0  0  0  0  0  0  0  0  0  0  0
   -2.4877   -3.6329    1.6055 B   0  0  0  0  0  0  0  0  0  0  0  0
    0.3596   -4.7213    1.9063 B   0  0  0  0  0  0  0  0  0  0  0  0
    1.7215   -2.4162    0.7345 B   0  0  0  0  0  0  0  0  0  0  0  0
    4.3387   -3.4800   -0.0729 B   0  0  0  0  0  0  0  0  0  0  0  0
   -5.0953    2.8472   -0.3735 B   0  0  0  0  0  0  0  0  0  0  0  0
   -3.0345    4.3187    0.9326 B   0  0  0  0  0  0  0  0  0  0  0  0
   -0.2869    4.8951    1.4426 B   0  0  0  0  0  0  0  0  0  0  0  0
    1.4616    2.5482    0.9924 B   0  0  0  0  0  0  0  0  0  0  0  0
    4.0784    3.6198    0.5106 B   0  0  0  0  0  0  0  0  0  0  0  0
   -4.5957    0.5913   -1.8415 B   0  0  0  0  0  0  0  0  0  0  0  0
   -7.3684   -2.5027   -0.8103 H   0  0  0  0  0  0  0  0  0  0  0  0
   -4.9591   -1.3760   -3.7739 H   0  0  0  0  0  0  0  0  0  0  0  0
   -6.3246    1.2608   -3.8715 H   0  0  0  0  0  0  0  0  0  0  0  0
   -7.6134    3.4017   -0.5976 H   0  0  0  0  0  0  0  0  0  0  0  0
    6.3612   -4.9354   -0.3602 H   0  0  0  0  0  0  0  0  0  0  0  0
    8.0163   -2.4682   -0.9061 H   0  0  0  0  0  0  0  0  0  0  0  0
    6.9392    0.6146   -2.6128 H   0  0  0  0  0  0  0  0  0  0  0  0
  1  2  2  0  0  0  0
  2  3  1  0  0  0  0
  3  4  4  0  0  0  0
  4  5  4  0  0  0  0
  5  6  4  0  0  0  0
  6  7  1  0  0  0  0
  7  8  2  0  0  0  0
  7  9  1  0  0  0  0
  6 10  4  0  0  0  0
  3 11  4  0  0  0  0
 10 11  4  0  0  0  0
  2 12  1  0  0  0  0
 12 13  4  0  0  0  0
 13 14  4  0  0  0  0
 14 15  4  0  0  0  0
 15 16  4  0  0  0  0
 12 17  4  0  0  0  0
 16 17  4  0  0  0  0
 17 18  1  0  0  0  0
 15 19  1  0  0  0  0
 19 20  1  0  0  0  0
 19 21  1  0  0  0  0
 19 22  1  0  0  0  0
 22 23  1  0  0  0  0
 14 24  1  0  0  0  0
 23 24  1  0  0  0  0
 24 25  1  0  0  0  0
 24 26  1  0  0  0  0
  1 27  1  0  0  0  0
  1 28  1  0  0  0  0
  4 29  1  0  0  0  0
  5 30  1  0  0  0  0
  9 31  1  0  0  0  0
 10 32  1  0  0  0  0
 11 33  1  0  0  0  0
 13 34  1  0  0  0  0
 16 35  1  0  0  0  0
 18 36  1  0  0  0  0
 18 37  1  0  0  0  0
 18 38  1  0  0  0  0
 20 39  1  0  0  0  0
 20 40  1  0  0  0  0
 20 41  1  0  0  0  0
 21 42  1  0  0  0  0
 21 43  1  0  0  0  0
 21 44  1  0  0  0  0
 22 45  1  0  0  0  0
 22 46  1  0  0  0  0
 23 47  1  0  0  0  0
 23 48  1  0  0  0  0
 25 49  1  0  0  0  0
 25 50  1  0  0  0  0
 25 51  1  0  0  0  0
 26 52  1  0  0  0  0
 26 53  1  0  0  0  0
 26 54  1  0  0  0  0
 58 59  1  0  0  0  0
 55 61  1  0  0  0  0
 56 61  1  0  0  0  0
 56 62  1  0  0  0  0
 57 63  1  0  0  0  0
 62 63  1  0  0  0  0
 57 64  1  0  0  0  0
 58 64  1  0  0  0  0
 63 64  1  0  0  0  0
 59 65  1  0  0  0  0
 60 66  1  0  0  0  0
 61 67  1  0  0  0  0
 61 68  1  0  0  0  0
 62 68  1  0  0  0  0
 67 68  1  0  0  0  0
 63 69  1  0  0  0  0
 64 70  1  0  0  0  0
 69 70  1  0  0  0  0
 65 71  1  0  0  0  0
 66 71  1  0  0  0  0
 60 72  1  0  0  0  0
 66 72  1  0  0  0  0
 67 73  1  0  0  0  0
 67 74  1  0  0  0  0
 68 74  1  0  0  0  0
 69 75  1  0  0  0  0
 69 76  1  0  0  0  0
 70 76  1  0  0  0  0
 75 76  1  0  0  0  0
 71 77  1  0  0  0  0
 66 78  1  0  0  0  0
 71 78  1  0  0  0  0
 72 78  1  0  0  0  0
 77 78  1  0  0  0  0
 73 79  1  0  0  0  0
 74 80  1  0  0  0  0
 75 81  1  0  0  0  0
 75 82  1  0  0  0  0
 76 82  1  0  0  0  0
 81 82  1  0  0  0  0
 77 83  1  0  0  0  0
 77 84  1  0  0  0  0
 78 84  1  0  0  0  0
 79 85  1  0  0  0  0
 80 86  2  0  0  0  0
 81 87  1  0  0  0  0
 81 88  1  0  0  0  0
 82 88  1  0  0  0  0
 87 88  1  0  0  0  0
 83 89  1  0  0  0  0
 77 90  1  0  0  0  0
 83 90  1  0  0  0  0
 84 90  1  0  0  0  0
 85 91  1  0  0  0  0
 86 92  1  0  0  0  0
 87 93  1  0  0  0  0
 88 94  1  0  0  0  0
 89 95  1  0  0  0  0
 94 95  1  0  0  0  0
 83 96  1  0  0  0  0
 90 96  1  0  0  0  0
 55 97  2  0  0  0  0
 56 97  1  0  0  0  0
 61 97  1  0  0  0  0
 56 98  1  0  0  0  0
 57 98  1  0  0  0  0
 62 98  1  0  0  0  0
 63 98  1  0  0  0  0
 57 99  1  0  0  0  0
 58 99  1  0  0  0  0
 64 99  1  0  0  0  0
 58100  1  0  0  0  0
 59100  1  0  0  0  0
 64100  1  0  0  0  0
 65100  1  0  0  0  0
 70100  1  0  0  0  0
 59101  1  0  0  0  0
 60101  1  0  0  0  0
 65101  1  0  0  0  0
 66101  1  0  0  0  0
 85102  1  0  0  0  0
 86102  1  0  0  0  0
 91102  1  0  0  0  0
 92102  1  0  0  0  0
 86103  1  0  0  0  0
 87103  1  0  0  0  0
 92103  1  0  0  0  0
 93103  1  0  0  0  0
 87104  1  0  0  0  0
 88104  1  0  0  0  0
 93104  1  0  0  0  0
 94104  1  0  0  0  0
 82105  1  0  0  0  0
 88105  1  0  0  0  0
 89105  1  0  0  0  0
 94105  1  0  0  0  0
 95105  1  0  0  0  0
 83106  1  0  0  0  0
 89106  1  0  0  0  0
 95106  1  0  0  0  0
 96106  1  0  0  0  0
 67107  1  0  0  0  0
 73107  1  0  0  0  0
 74107  1  0  0  0  0
 79107  1  0  0  0  0
 85107  1  0  0  0  0
 55108  1  0  0  0  0
 73109  1  0  0  0  0
 79110  1  0  0  0  0
 91111  1  0  0  0  0
 60112  1  0  0  0  0
 72113  1  0  0  0  0
 84114  1  0  0  0  0
M  END
