 xtb: 6.7.1pre (5071a88)
          09012620283D

109146  0     0  0            999 V2000
    2.0091   -0.7064   12.0126 C   0  0  0  0  0  0  0  0  0  0  0  0
    1.9443   -0.5766   10.6737 C   0  0  0  0  0  0  0  0  0  0  0  0
    3.1943   -0.3878    9.8935 C   0  0  0  0  0  0  0  0  0  0  0  0
    4.3433   -1.1533   10.1449 C   0  0  0  0  0  0  0  0  0  0  0  0
    5.5022   -0.9769    9.3814 C   0  0  0  0  0  0  0  0  0  0  0  0
    5.5274   -0.0354    8.3472 C   0  0  0  0  0  0  0  0  0  0  0  0
    6.7770    0.1164    7.5637 C   0  0  0  0  0  0  0  0  0  0  0  0
    7.8059   -0.5114    7.7336 O   0  0  0  0  0  0  0  0  0  0  0  0
    6.6810    1.0505    6.6011 O   0  0  0  0  0  0  0  0  0  0  0  0
    4.3844    0.7244    8.0794 C   0  0  0  0  0  0  0  0  0  0  0  0
    3.2271    0.5444    8.8454 C   0  0  0  0  0  0  0  0  0  0  0  0
    0.5867   -0.6025   10.0709 C   0  0  0  0  0  0  0  0  0  0  0  0
   -0.2677    0.4925   10.2836 C   0  0  0  0  0  0  0  0  0  0  0  0
   -1.5627    0.5686    9.7244 C   0  0  0  0  0  0  0  0  0  0  0  0
   -2.0252   -0.5216    8.9554 C   0  0  0  0  0  0  0  0  0  0  0  0
   -1.1485   -1.6079    8.7307 C   0  0  0  0  0  0  0  0  0  0  0  0
    0.1416   -1.6694    9.2818 C   0  0  0  0  0  0  0  0  0  0  0  0
    1.0086   -2.8621    8.9846 C   0  0  0  0  0  0  0  0  0  0  0  0
   -3.4245   -0.5476    8.3241 C   0  0  0  0  0  0  0  0  0  0  0  0
   -3.2857   -0.3177    6.8028 C   0  0  0  0  0  0  0  0  0  0  0  0
   -4.1333   -1.9047    8.5485 C   0  0  0  0  0  0  0  0  0  0  0  0
   -4.3454    0.5309    8.9369 C   0  0  0  0  0  0  0  0  0  0  0  0
   -3.6461    1.8741    9.0577 C   0  0  0  0  0  0  0  0  0  0  0  0
   -2.4248    1.8075   10.0013 C   0  0  0  0  0  0  0  0  0  0  0  0
   -2.8981    1.7623   11.4711 C   0  0  0  0  0  0  0  0  0  0  0  0
   -1.6345    3.1203    9.7850 C   0  0  0  0  0  0  0  0  0  0  0  0
    2.9480   -0.6683   12.5555 H   0  0  0  0  0  0  0  0  0  0  0  0
    1.1147   -0.8454   12.6143 H   0  0  0  0  0  0  0  0  0  0  0  0
    4.3439   -1.9069   10.9294 H   0  0  0  0  0  0  0  0  0  0  0  0
    6.3815   -1.5816    9.5949 H   0  0  0  0  0  0  0  0  0  0  0  0
    7.5638    1.0395    6.1757 H   0  0  0  0  0  0  0  0  0  0  0  0
    4.3785    1.4578    7.2769 H   0  0  0  0  0  0  0  0  0  0  0  0
    2.3489    1.1450    8.6155 H   0  0  0  0  0  0  0  0  0  0  0  0
    0.0990    1.3074   10.9052 H   0  0  0  0  0  0  0  0  0  0  0  0
   -1.4727   -2.4351    8.1018 H   0  0  0  0  0  0  0  0  0  0  0  0
    1.4690   -3.2489    9.8994 H   0  0  0  0  0  0  0  0  0  0  0  0
    0.4238   -3.6826    8.5547 H   0  0  0  0  0  0  0  0  0  0  0  0
    1.7886   -2.5935    8.2656 H   0  0  0  0  0  0  0  0  0  0  0  0
   -2.7457    0.6078    6.5752 H   0  0  0  0  0  0  0  0  0  0  0  0
   -4.2682   -0.2608    6.3204 H   0  0  0  0  0  0  0  0  0  0  0  0
   -2.7346   -1.1339    6.3208 H   0  0  0  0  0  0  0  0  0  0  0  0
   -4.1598   -2.1664    9.6129 H   0  0  0  0  0  0  0  0  0  0  0  0
   -3.6429   -2.7278    8.0183 H   0  0  0  0  0  0  0  0  0  0  0  0
   -5.1679   -1.8705    8.1866 H   0  0  0  0  0  0  0  0  0  0  0  0
   -5.2494    0.6483    8.3252 H   0  0  0  0  0  0  0  0  0  0  0  0
   -4.6954    0.2150    9.9278 H   0  0  0  0  0  0  0  0  0  0  0  0
   -3.3391    2.2129    8.0601 H   0  0  0  0  0  0  0  0  0  0  0  0
   -4.3629    2.6231    9.4188 H   0  0  0  0  0  0  0  0  0  0  0  0
   -3.4265    0.8312   11.7034 H   0  0  0  0  0  0  0  0  0  0  0  0
   -3.5730    2.5963   11.6950 H   0  0  0  0  0  0  0  0  0  0  0  0
   -2.0546    1.8314   12.1681 H   0  0  0  0  0  0  0  0  0  0  0  0
   -0.8298    3.2518   10.5159 H   0  0  0  0  0  0  0  0  0  0  0  0
   -2.2914    3.9931    9.8811 H   0  0  0  0  0  0  0  0  0  0  0  0
   -1.1823    3.1504    8.7866 H   0  0  0  0  0  0  0  0  0  0  0  0
   -4.7806   -2.6045    0.3173 B   0  0  0  0  0  0  0  0  0  0  0  0
   -4.5695   -1.3567   -0.6480 B   0  0  0  0  0  0  0  0  0  0  0  0
   -4.4639   -0.2474   -1.8829 B   0  0  0  0  0  0  0  0  0  0  0  0
   -3.3965   -2.6620   -0.5028 B   0  0  0  0  0  0  0  0  0  0  0  0
   -3.0380    0.1776   -1.4048 B   0  0  0  0  0  0  0  0  0  0  0  0
   -4.3909    0.3426   -0.1924 B   0  0  0  0  0  0  0  0  0  0  0  0
   -5.0310    1.4031    0.8192 B   0  0  0  0  0  0  0  0  0  0  0  0
   -4.6201    2.9864    0.9976 B   0  0  0  0  0  0  0  0  0  0  0  0
   -2.8089    0.5128    0.1995 B   0  0  0  0  0  0  0  0  0  0  0  0
   -3.2186    3.2275    1.7932 B   0  0  0  0  0  0  0  0  0  0  0  0
   -2.1611   -3.7758   -0.5843 B   0  0  0  0  0  0  0  0  0  0  0  0
   -1.8769   -2.2481   -0.9334 B   0  0  0  0  0  0  0  0  0  0  0  0
   -1.6972   -0.6133   -0.8358 B   0  0  0  0  0  0  0  0  0  0  0  0
   -0.5844   -3.2190   -0.8350 B   0  0  0  0  0  0  0  0  0  0  0  0
   -0.2198   -0.1484   -0.3118 B   0  0  0  0  0  0  0  0  0  0  0  0
   -1.3950    0.0358    0.8521 B   0  0  0  0  0  0  0  0  0  0  0  0
   -1.7757    1.6621    0.7592 B   0  0  0  0  0  0  0  0  0  0  0  0
   -1.8975    3.2370    0.8826 B   0  0  0  0  0  0  0  0  0  0  0  0
   -0.2153    1.0372    1.0697 B   0  0  0  0  0  0  0  0  0  0  0  0
   -0.7521    4.3480    0.5584 B   0  0  0  0  0  0  0  0  0  0  0  0
    0.8265   -4.1129   -0.7400 B   0  0  0  0  0  0  0  0  0  0  0  0
    0.9251   -2.5054   -0.7497 B   0  0  0  0  0  0  0  0  0  0  0  0
    1.2144   -0.9490   -0.5870 B   0  0  0  0  0  0  0  0  0  0  0  0
    2.2007   -3.4026   -0.1682 B   0  0  0  0  0  0  0  0  0  0  0  0
    2.6220   -0.1957   -0.2930 B   0  0  0  0  0  0  0  0  0  0  0  0
    1.2341    0.5516    0.1426 B   0  0  0  0  0  0  0  0  0  0  0  0
    1.1248    2.0009    1.0430 B   0  0  0  0  0  0  0  0  0  0  0  0
    0.5366    3.4372    0.6180 B   0  0  0  0  0  0  0  0  0  0  0  0
    2.4580    1.6726    0.0875 B   0  0  0  0  0  0  0  0  0  0  0  0
    1.2136    3.0171   -0.8530 B   0  0  0  0  0  0  0  0  0  0  0  0
    3.2202   -3.8508    1.1044 B   0  0  0  0  0  0  0  0  0  0  0  0
    3.6240   -2.6535    0.0637 B   0  0  0  0  0  0  0  0  0  0  0  0
    4.0250   -1.1219   -0.2366 B   0  0  0  0  0  0  0  0  0  0  0  0
    4.4174   -2.8355    1.4203 B   0  0  0  0  0  0  0  0  0  0  0  0
    5.3636   -0.2419   -0.6898 B   0  0  0  0  0  0  0  0  0  0  0  0
    4.1041    0.5310   -0.0135 B   0  0  0  0  0  0  0  0  0  0  0  0
    4.0181    2.3218   -0.0338 B   0  0  0  0  0  0  0  0  0  0  0  0
    2.8218    3.0968   -0.9129 B   0  0  0  0  0  0  0  0  0  0  0  0
    5.4220    1.4583   -0.1853 B   0  0  0  0  0  0  0  0  0  0  0  0
    4.2961    3.5501   -1.0140 B   0  0  0  0  0  0  0  0  0  0  0  0
   -5.1687   -3.0949    1.3107 H   0  0  0  0  0  0  0  0  0  0  0  0
   -5.7161   -2.0764   -0.3935 H   0  0  0  0  0  0  0  0  0  0  0  0
   -5.2640   -0.1207   -2.7417 H   0  0  0  0  0  0  0  0  0  0  0  0
   -5.7711    1.0074    1.6646 H   0  0  0  0  0  0  0  0  0  0  0  0
   -5.3645    3.8431    0.6720 H   0  0  0  0  0  0  0  0  0  0  0  0
   -3.2343    3.2250    2.9757 H   0  0  0  0  0  0  0  0  0  0  0  0
   -2.3593   -4.9262   -0.4732 H   0  0  0  0  0  0  0  0  0  0  0  0
   -0.8965    5.4755    0.2443 H   0  0  0  0  0  0  0  0  0  0  0  0
    0.8223   -5.2498   -1.0233 H   0  0  0  0  0  0  0  0  0  0  0  0
    0.5537    2.6943   -1.7837 H   0  0  0  0  0  0  0  0  0  0  0  0
    2.9703   -4.8176    1.7172 H   0  0  0  0  0  0  0  0  0  0  0  0
    5.2631   -2.5125    2.1565 H   0  0  0  0  0  0  0  0  0  0  0  0
    6.3848   -0.6467   -1.0956 H   0  0  0  0  0  0  0  0  0  0  0  0
    6.5032    1.8382    0.0650 H   0  0  0  0  0  0  0  0  0  0  0  0
    5.1389    4.2524   -1.4154 H   0  0  0  0  0  0  0  0  0  0  0  0
  1  2  2  0  0  0  0
  2  3  1  0  0  0  0
  3  4  4  0  0  0  0
  4  5  4  0  0  0  0
  5  6  4  0  0  0  0
  6  7  1  0  0  0  0
  7  8  2  0  0  0  0
  7  9  1  0  0  0  0
  6 10  4  0  0  0  0
  3 11  4  0  0  0  0
 10 11  4  0  0  0  0
  2 12  1  0  0  0  0
 12 13  4  0  0  0  0
 13 14  4  0  0  0  0
 14 15  4  0  0  0  0
 15 16  4  0  0  0  0
 12 17  4  0  0  0  0
 16 17  4  0  0  0  0
 17 18  1  0  0  0  0
 15 19  1  0  0  0  0
 19 20  1  0  0  0  0
 19 21  1  0  0  0  0
 19 22  1  0  0  0  0
 22 23  1  0  0  0  0
 14 24  1  0  0  0  0
 23 24  1  0  0  0  0
 24 25  1  0  0  0  0
 24 26  1  0  0  0  0
  1 27  1  0  0  0  0
  1 28  1  0  0  0  0
  4 29  1  0  0  0  0
  5 30  1  0  0  0  0
  9 31  1  0  0  0  0
 10 32  1  0  0  0  0
 11 33  1  0  0  0  0
 13 34  1  0  0  0  0
 16 35  1  0  0  0  0
 18 36  1  0  0  0  0
 18 37  1  0  0  0  0
 18 38  1  0  0  0  0
 20 39  1  0  0  0  0
 20 40  1  0  0  0  0
 20 41  1  0  0  0  0
 21 42  1  0  0  0  0
 21 43  1  0  0  0  0
 21 44  1  0  0  0  0
 22 45  1  0  0  0  0
 22 46  1  0  0  0  0
 23 47  1  0  0  0  0
 23 48  1  0  0  0  0
 25 49  1  0  0  0  0
 25 50  1  0  0  0  0
 25 51  1  0  0  0  0
 26 52  1  0  0  0  0
 26 53  1  0  0  0  0
 26 54  1  0  0  0  0
 55 56  1  0  0  0  0
 56 57  1  0  0  0  0
 55 58  1  0  0  0  0
 56 58  1  0  0  0  0
 57 59  1  0  0  0  0
 56 60  1  0  0  0  0
 57 60  1  0  0  0  0
 59 60  1  0  0  0  0
 60 61  1  0  0  0  0
 61 62  1  0  0  0  0
 59 63  1  0  0  0  0
 60 63  1  0  0  0  0
 62 64  1  0  0  0  0
 58 65  1  0  0  0  0
 58 66  1  0  0  0  0
 65 66  1  0  0  0  0
 59 67  1  0  0  0  0
 63 67  1  0  0  0  0
 66 67  1  0  0  0  0
 65 68  1  0  0  0  0
 66 68  1  0  0  0  0
 67 69  1  0  0  0  0
 63 70  1  0  0  0  0
 67 70  1  0  0  0  0
 69 70  1  0  0  0  0
 63 71  1  0  0  0  0
 70 71  1  0  0  0  0
 64 72  1  0  0  0  0
 71 72  1  0  0  0  0
 69 73  1  0  0  0  0
 70 73  1  0  0  0  0
 71 73  1  0  0  0  0
 72 74  1  0  0  0  0
 68 75  1  0  0  0  0
 68 76  1  0  0  0  0
 75 76  1  0  0  0  0
 69 77  1  0  0  0  0
 76 77  1  0  0  0  0
 75 78  1  0  0  0  0
 76 78  1  0  0  0  0
 77 79  1  0  0  0  0
 69 80  1  0  0  0  0
 73 80  1  0  0  0  0
 77 80  1  0  0  0  0
 79 80  1  0  0  0  0
 73 81  1  0  0  0  0
 80 81  1  0  0  0  0
 74 82  1  0  0  0  0
 81 82  1  0  0  0  0
 79 83  1  0  0  0  0
 80 83  1  0  0  0  0
 81 83  1  0  0  0  0
 82 84  1  0  0  0  0
 78 85  1  0  0  0  0
 78 86  1  0  0  0  0
 85 86  1  0  0  0  0
 79 87  1  0  0  0  0
 86 87  1  0  0  0  0
 85 88  1  0  0  0  0
 86 88  1  0  0  0  0
 87 89  1  0  0  0  0
 79 90  1  0  0  0  0
 87 90  1  0  0  0  0
 89 90  1  0  0  0  0
 83 91  1  0  0  0  0
 90 91  1  0  0  0  0
 83 92  1  0  0  0  0
 84 92  1  0  0  0  0
 91 92  1  0  0  0  0
 89 93  1  0  0  0  0
 90 93  1  0  0  0  0
 91 93  1  0  0  0  0
 91 94  1  0  0  0  0
 92 94  1  0  0  0  0
 55 95  1  0  0  0  0
 55 96  1  0  0  0  0
 56 96  1  0  0  0  0
 57 97  1  0  0  0  0
 61 98  1  0  0  0  0
 62 99  1  0  0  0  0
 64100  1  0  0  0  0
 65101  1  0  0  0  0
 74102  1  0  0  0  0
 75103  1  0  0  0  0
 84104  1  0  0  0  0
 85105  1  0  0  0  0
 88106  1  0  0  0  0
 89107  1  0  0  0  0
 93108  1  0  0  0  0
 94109  1  0  0  0  0
M  END
