 xtb: 6.7.1pre (5071a88)
          08312620243D

114146  0     0  0            999 V2000
    2.0091   -0.7064    6.3229 C   0  0  0  0  0  0  0  0  0  0  0  0
    1.9443   -0.5766    4.9840 C   0  0  0  0  0  0  0  0  0  0  0  0
    3.1943   -0.3878    4.2038 C   0  0  0  0  0  0  0  0  0  0  0  0
    4.3433   -1.1533    4.4552 C   0  0  0  0  0  0  0  0  0  0  0  0
    5.5022   -0.9769    3.6917 C   0  0  0  0  0  0  0  0  0  0  0  0
    5.5274   -0.0354    2.6575 C   0  0  0  0  0  0  0  0  0  0  0  0
    6.7770    0.1164    1.8740 C   0  0  0  0  0  0  0  0  0  0  0  0
    7.8059   -0.5114    2.0439 O   0  0  0  0  0  0  0  0  0  0  0  0
    6.6810    1.0505    0.9114 O   0  0  0  0  0  0  0  0  0  0  0  0
    4.3844    0.7244    2.3897 C   0  0  0  0  0  0  0  0  0  0  0  0
    3.2271    0.5444    3.1557 C   0  0  0  0  0  0  0  0  0  0  0  0
    0.5867   -0.6025    4.3812 C   0  0  0  0  0  0  0  0  0  0  0  0
   -0.2677    0.4925    4.5939 C   0  0  0  0  0  0  0  0  0  0  0  0
   -1.5627    0.5686    4.0347 C   0  0  0  0  0  0  0  0  0  0  0  0
   -2.0252   -0.5216    3.2657 C   0  0  0  0  0  0  0  0  0  0  0  0
   -1.1485   -1.6079    3.0410 C   0  0  0  0  0  0  0  0  0  0  0  0
    0.1416   -1.6694    3.5921 C   0  0  0  0  0  0  0  0  0  0  0  0
    1.0086   -2.8621    3.2949 C   0  0  0  0  0  0  0  0  0  0  0  0
   -3.4245   -0.5476    2.6344 C   0  0  0  0  0  0  0  0  0  0  0  0
   -3.2857   -0.3177    1.1131 C   0  0  0  0  0  0  0  0  0  0  0  0
   -4.1333   -1.9047    2.8588 C   0  0  0  0  0  0  0  0  0  0  0  0
   -4.3454    0.5309    3.2472 C   0  0  0  0  0  0  0  0  0  0  0  0
   -3.6461    1.8741    3.3680 C   0  0  0  0  0  0  0  0  0  0  0  0
   -2.4248    1.8075    4.3116 C   0  0  0  0  0  0  0  0  0  0  0  0
   -2.8981    1.7623    5.7814 C   0  0  0  0  0  0  0  0  0  0  0  0
   -1.6345    3.1203    4.0953 C   0  0  0  0  0  0  0  0  0  0  0  0
    2.9480   -0.6683    6.8658 H   0  0  0  0  0  0  0  0  0  0  0  0
    1.1147   -0.8454    6.9246 H   0  0  0  0  0  0  0  0  0  0  0  0
    4.3439   -1.9069    5.2397 H   0  0  0  0  0  0  0  0  0  0  0  0
    6.3815   -1.5816    3.9052 H   0  0  0  0  0  0  0  0  0  0  0  0
    7.5638    1.0395    0.4860 H   0  0  0  0  0  0  0  0  0  0  0  0
    4.3785    1.4578    1.5872 H   0  0  0  0  0  0  0  0  0  0  0  0
    2.3489    1.1450    2.9259 H   0  0  0  0  0  0  0  0  0  0  0  0
    0.0990    1.3074    5.2155 H   0  0  0  0  0  0  0  0  0  0  0  0
   -1.4727   -2.4351    2.4121 H   0  0  0  0  0  0  0  0  0  0  0  0
    1.4690   -3.2489    4.2097 H   0  0  0  0  0  0  0  0  0  0  0  0
    0.4238   -3.6826    2.8650 H   0  0  0  0  0  0  0  0  0  0  0  0
    1.7886   -2.5935    2.5759 H   0  0  0  0  0  0  0  0  0  0  0  0
   -2.7457    0.6078    0.8855 H   0  0  0  0  0  0  0  0  0  0  0  0
   -4.2682   -0.2608    0.6307 H   0  0  0  0  0  0  0  0  0  0  0  0
   -2.7346   -1.1339    0.6311 H   0  0  0  0  0  0  0  0  0  0  0  0
   -4.1598   -2.1664    3.9232 H   0  0  0  0  0  0  0  0  0  0  0  0
   -3.6429   -2.7278    2.3286 H   0  0  0  0  0  0  0  0  0  0  0  0
   -5.1679   -1.8705    2.4969 H   0  0  0  0  0  0  0  0  0  0  0  0
   -5.2494    0.6483    2.6355 H   0  0  0  0  0  0  0  0  0  0  0  0
   -4.6954    0.2150    4.2381 H   0  0  0  0  0  0  0  0  0  0  0  0
   -3.3391    2.2129    2.3704 H   0  0  0  0  0  0  0  0  0  0  0  0
   -4.3629    2.6231    3.7292 H   0  0  0  0  0  0  0  0  0  0  0  0
   -3.4265    0.8312    6.0137 H   0  0  0  0  0  0  0  0  0  0  0  0
   -3.5730    2.5963    6.0053 H   0  0  0  0  0  0  0  0  0  0  0  0
   -2.0546    1.8314    6.4784 H   0  0  0  0  0  0  0  0  0  0  0  0
   -0.8298    3.2518    4.8263 H   0  0  0  0  0  0  0  0  0  0  0  0
   -2.2914    3.9931    4.1914 H   0  0  0  0  0  0  0  0  0  0  0  0
   -1.1823    3.1504    3.0969 H   0  0  0  0  0  0  0  0  0  0  0  0
   -7.5000   -4.5000    0.0000 B   0  0  0  0  0  0  0  0  0  0  0  0
   -4.5000   -4.5000    0.0000 B   0  0  0  0  0  0  0  0  0  0  0  0
   -1.5000   -4.5000    0.0000 B   0  0  0  0  0  0  0  0  0  0  0  0
    1.5000   -4.5000    0.0000 B   0  0  0  0  0  0  0  0  0  0  0  0
    4.5000   -4.5000    0.0000 B   0  0  0  0  0  0  0  0  0  0  0  0
    7.5000   -4.5000    0.0000 B   0  0  0  0  0  0  0  0  0  0  0  0
   -7.5000   -3.0000    0.0000 B   0  0  0  0  0  0  0  0  0  0  0  0
   -4.5000   -3.0000    0.0000 B   0  0  0  0  0  0  0  0  0  0  0  0
   -1.5000   -3.0000    0.0000 B   0  0  0  0  0  0  0  0  0  0  0  0
    1.5000   -3.0000    0.0000 B   0  0  0  0  0  0  0  0  0  0  0  0
    4.5000   -3.0000    0.0000 B   0  0  0  0  0  0  0  0  0  0  0  0
    7.5000   -3.0000    0.0000 B   0  0  0  0  0  0  0  0  0  0  0  0
   -7.5000   -1.5000    0.0000 B   0  0  0  0  0  0  0  0  0  0  0  0
   -4.5000   -1.5000    0.0000 B   0  0  0  0  0  0  0  0  0  0  0  0
   -1.5000   -1.5000    0.0000 B   0  0  0  0  0  0  0  0  0  0  0  0
    1.5000   -1.5000    0.0000 B   0  0  0  0  0  0  0  0  0  0  0  0
    4.5000   -1.5000    0.0000 B   0  0  0  0  0  0  0  0  0  0  0  0
    7.5000   -1.5000    0.0000 B   0  0  0  0  0  0  0  0  0  0  0  0
   -7.5000    0.0000    0.0000 B   0  0  0  0  0  0  0  0  0  0  0  0
   -4.5000    0.0000    0.0000 B   0  0  0  0  0  0  0  0  0  0  0  0
   -1.5000    0.0000    0.0000 B   0  0  0  0  0  0  0  0  0  0  0  0
    1.5000    0.0000    0.0000 B   0  0  0  0  0  0  0  0  0  0  0  0
    4.5000    0.0000    0.0000 B   0  0  0  0  0  0  0  0  0  0  0  0
    7.5000    0.0000    0.0000 B   0  0  0  0  0  0  0  0  0  0  0  0
   -7.5000    1.5000    0.0000 B   0  0  0  0  0  0  0  0  0  0  0  0
   -4.5000    1.5000    0.0000 B   0  0  0  0  0  0  0  0  0  0  0  0
   -1.5000    1.5000    0.0000 B   0  0  0  0  0  0  0  0  0  0  0  0
    1.5000    1.5000    0.0000 B   0  0  0  0  0  0  0  0  0  0  0  0
    4.5000    1.5000    0.0000 B   0  0  0  0  0  0  0  0  0  0  0  0
    7.5000    1.5000    0.0000 B   0  0  0  0  0  0  0  0  0  0  0  0
   -7.5000    3.0000    0.0000 B   0  0  0  0  0  0  0  0  0  0  0  0
   -4.5000    3.0000    0.0000 B   0  0  0  0  0  0  0  0  0  0  0  0
   -1.5000    3.0000    0.0000 B   0  0  0  0  0  0  0  0  0  0  0  0
    1.5000    3.0000    0.0000 B   0  0  0  0  0  0  0  0  0  0  0  0
    4.5000    3.0000    0.0000 B   0  0  0  0  0  0  0  0  0  0  0  0
    7.5000    3.0000    0.0000 B   0  0  0  0  0  0  0  0  0  0  0  0
   -7.5000    4.5000    0.0000 B   0  0  0  0  0  0  0  0  0  0  0  0
   -4.5000    4.5000    0.0000 B   0  0  0  0  0  0  0  0  0  0  0  0
   -1.5000    4.5000    0.0000 B   0  0  0  0  0  0  0  0  0  0  0  0
    1.5000    4.5000    0.0000 B   0  0  0  0  0  0  0  0  0  0  0  0
    4.5000    4.5000    0.0000 B   0  0  0  0  0  0  0  0  0  0  0  0
    7.5000    4.5000    0.0000 B   0  0  0  0  0  0  0  0  0  0  0  0
   -6.0000   -3.7500    0.0000 B   0  0  0  0  0  0  0  0  0  0  0  0
   -3.0000   -3.7500    0.0000 B   0  0  0  0  0  0  0  0  0  0  0  0
    0.0000   -3.7500    0.0000 B   0  0  0  0  0  0  0  0  0  0  0  0
    3.0000   -3.7500    0.0000 B   0  0  0  0  0  0  0  0  0  0  0  0
    6.0000   -3.7500    0.0000 B   0  0  0  0  0  0  0  0  0  0  0  0
   -6.0000    3.7500    0.0000 B   0  0  0  0  0  0  0  0  0  0  0  0
   -3.0000    3.7500    0.0000 B   0  0  0  0  0  0  0  0  0  0  0  0
    0.0000    3.7500    0.0000 B   0  0  0  0  0  0  0  0  0  0  0  0
    3.0000    3.7500    0.0000 B   0  0  0  0  0  0  0  0  0  0  0  0
    6.0000    3.7500    0.0000 B   0  0  0  0  0  0  0  0  0  0  0  0
   -6.0000    0.0000    0.0000 B   0  0  0  0  0  0  0  0  0  0  0  0
   -8.6000   -4.5000    0.0000 H   0  0  0  0  0  0  0  0  0  0  0  0
   -8.6000   -1.5000    0.0000 H   0  0  0  0  0  0  0  0  0  0  0  0
   -8.6000    1.5000    0.0000 H   0  0  0  0  0  0  0  0  0  0  0  0
   -8.6000    4.5000    0.0000 H   0  0  0  0  0  0  0  0  0  0  0  0
    8.6000   -4.5000    0.0000 H   0  0  0  0  0  0  0  0  0  0  0  0
    8.6000   -1.5000    0.0000 H   0  0  0  0  0  0  0  0  0  0  0  0
    8.6000    1.5000    0.0000 H   0  0  0  0  0  0  0  0  0  0  0  0
  1  2  2  0  0  0  0
  2  3  1  0  0  0  0
  3  4  4  0  0  0  0
  4  5  2  0  0  0  0
  5  6  4  0  0  0  0
  6  7  1  0  0  0  0
  7  8  4  0  0  0  0
  7  9  1  0  0  0  0
  6 10  4  0  0  0  0
  3 11  4  0  0  0  0
 10 11  4  0  0  0  0
  2 12  1  0  0  0  0
 12 13  4  0  0  0  0
 13 14  4  0  0  0  0
 14 15  4  0  0  0  0
 15 16  4  0  0  0  0
 12 17  4  0  0  0  0
 16 17  4  0  0  0  0
 17 18  1  0  0  0  0
 15 19  1  0  0  0  0
 19 20  1  0  0  0  0
 19 21  1  0  0  0  0
 19 22  1  0  0  0  0
 22 23  1  0  0  0  0
 14 24  1  0  0  0  0
 23 24  1  0  0  0  0
 24 25  1  0  0  0  0
 24 26  1  0  0  0  0
  1 27  1  0  0  0  0
  1 28  1  0  0  0  0
  4 29  1  0  0  0  0
  5 30  1  0  0  0  0
  9 31  1  0  0  0  0
 10 32  1  0  0  0  0
 11 33  1  0  0  0  0
 13 34  1  0  0  0  0
 16 35  1  0  0  0  0
 18 36  1  0  0  0  0
 18 37  1  0  0  0  0
 18 38  1  0  0  0  0
 20 39  1  0  0  0  0
 20 40  1  0  0  0  0
 20 41  1  0  0  0  0
 21 42  1  0  0  0  0
 21 43  1  0  0  0  0
 21 44  1  0  0  0  0
 22 45  1  0  0  0  0
 22 46  1  0  0  0  0
 23 47  1  0  0  0  0
 23 48  1  0  0  0  0
 25 49  1  0  0  0  0
 25 50  1  0  0  0  0
 25 51  1  0  0  0  0
 26 52  1  0  0  0  0
 26 53  1  0  0  0  0
 26 54  1  0  0  0  0
 55 61  1  0  0  0  0
 56 62  1  0  0  0  0
 57 63  1  0  0  0  0
 58 64  1  0  0  0  0
 59 65  1  0  0  0  0
 60 66  1  0  0  0  0
 61 67  1  0  0  0  0
 62 68  1  0  0  0  0
 63 69  1  0  0  0  0
 64 70  1  0  0  0  0
 65 71  1  0  0  0  0
 66 72  1  0  0  0  0
 67 73  1  0  0  0  0
 20 74  1  0  0  0  0
 68 74  1  0  0  0  0
 69 75  2  0  0  0  0
 70 76  2  0  0  0  0
 71 77  2  0  0  0  0
  9 78  1  0  0  0  0
 72 78  1  0  0  0  0
 73 79  1  0  0  0  0
 74 80  1  0  0  0  0
 75 81  2  0  0  0  0
 76 82  2  0  0  0  0
 77 83  2  0  0  0  0
  9 84  1  0  0  0  0
 78 84  1  0  0  0  0
 79 85  1  0  0  0  0
 80 86  1  0  0  0  0
 81 87  1  0  0  0  0
 82 88  1  0  0  0  0
 83 89  1  0  0  0  0
 84 90  1  0  0  0  0
 85 91  1  0  0  0  0
 86 92  1  0  0  0  0
 87 93  1  0  0  0  0
 88 94  1  0  0  0  0
 89 95  1  0  0  0  0
 90 96  2  0  0  0  0
 55 97  1  0  0  0  0
 56 97  1  0  0  0  0
 61 97  1  0  0  0  0
 62 97  1  0  0  0  0
 56 98  1  0  0  0  0
 57 98  1  0  0  0  0
 62 98  1  0  0  0  0
 63 98  1  0  0  0  0
 57 99  1  0  0  0  0
 58 99  1  0  0  0  0
 63 99  1  0  0  0  0
 64 99  1  0  0  0  0
 58100  1  0  0  0  0
 59100  1  0  0  0  0
 64100  1  0  0  0  0
 65100  1  0  0  0  0
 59101  1  0  0  0  0
 60101  1  0  0  0  0
 65101  1  0  0  0  0
 66101  1  0  0  0  0
 85102  1  0  0  0  0
 86102  1  0  0  0  0
 91102  1  0  0  0  0
 92102  1  0  0  0  0
 86103  1  0  0  0  0
 87103  1  0  0  0  0
 92103  1  0  0  0  0
 93103  1  0  0  0  0
 87104  1  0  0  0  0
 88104  1  0  0  0  0
 93104  1  0  0  0  0
 94104  1  0  0  0  0
 88105  1  0  0  0  0
 89105  1  0  0  0  0
 94105  1  0  0  0  0
 95105  1  0  0  0  0
 89106  1  0  0  0  0
 90106  1  0  0  0  0
 95106  1  0  0  0  0
 96106  1  0  0  0  0
 67107  1  0  0  0  0
 73107  1  0  0  0  0
 74107  1  0  0  0  0
 79107  1  0  0  0  0
 55108  1  0  0  0  0
 67109  1  0  0  0  0
 79110  1  0  0  0  0
 91111  1  0  0  0  0
 60112  1  0  0  0  0
 72113  1  0  0  0  0
 84114  1  0  0  0  0
M  END
