 xtb: 6.7.1pre (5071a88)
          09012616343D

114156  0     0  0            999 V2000
    2.0091   -0.7064   10.7854 C   0  0  0  0  0  0  0  0  0  0  0  0
    1.9443   -0.5766    9.4465 C   0  0  0  0  0  0  0  0  0  0  0  0
    3.1943   -0.3878    8.6663 C   0  0  0  0  0  0  0  0  0  0  0  0
    4.3433   -1.1533    8.9177 C   0  0  0  0  0  0  0  0  0  0  0  0
    5.5022   -0.9769    8.1542 C   0  0  0  0  0  0  0  0  0  0  0  0
    5.5274   -0.0354    7.1199 C   0  0  0  0  0  0  0  0  0  0  0  0
    6.7770    0.1164    6.3365 C   0  0  0  0  0  0  0  0  0  0  0  0
    7.8059   -0.5114    6.5064 O   0  0  0  0  0  0  0  0  0  0  0  0
    6.6810    1.0505    5.3739 O   0  0  0  0  0  0  0  0  0  0  0  0
    4.3844    0.7244    6.8522 C   0  0  0  0  0  0  0  0  0  0  0  0
    3.2271    0.5444    7.6182 C   0  0  0  0  0  0  0  0  0  0  0  0
    0.5867   -0.6025    8.8436 C   0  0  0  0  0  0  0  0  0  0  0  0
   -0.2677    0.4925    9.0564 C   0  0  0  0  0  0  0  0  0  0  0  0
   -1.5627    0.5686    8.4972 C   0  0  0  0  0  0  0  0  0  0  0  0
   -2.0252   -0.5216    7.7282 C   0  0  0  0  0  0  0  0  0  0  0  0
   -1.1485   -1.6079    7.5035 C   0  0  0  0  0  0  0  0  0  0  0  0
    0.1416   -1.6694    8.0546 C   0  0  0  0  0  0  0  0  0  0  0  0
    1.0086   -2.8621    7.7574 C   0  0  0  0  0  0  0  0  0  0  0  0
   -3.4245   -0.5476    7.0969 C   0  0  0  0  0  0  0  0  0  0  0  0
   -3.2857   -0.3177    5.5756 C   0  0  0  0  0  0  0  0  0  0  0  0
   -4.1333   -1.9047    7.3212 C   0  0  0  0  0  0  0  0  0  0  0  0
   -4.3454    0.5309    7.7097 C   0  0  0  0  0  0  0  0  0  0  0  0
   -3.6461    1.8741    7.8305 C   0  0  0  0  0  0  0  0  0  0  0  0
   -2.4248    1.8075    8.7741 C   0  0  0  0  0  0  0  0  0  0  0  0
   -2.8981    1.7623   10.2439 C   0  0  0  0  0  0  0  0  0  0  0  0
   -1.6345    3.1203    8.5578 C   0  0  0  0  0  0  0  0  0  0  0  0
    2.9480   -0.6683   11.3282 H   0  0  0  0  0  0  0  0  0  0  0  0
    1.1147   -0.8454   11.3871 H   0  0  0  0  0  0  0  0  0  0  0  0
    4.3439   -1.9069    9.7022 H   0  0  0  0  0  0  0  0  0  0  0  0
    6.3815   -1.5816    8.3677 H   0  0  0  0  0  0  0  0  0  0  0  0
    7.5638    1.0395    4.9485 H   0  0  0  0  0  0  0  0  0  0  0  0
    4.3785    1.4578    6.0497 H   0  0  0  0  0  0  0  0  0  0  0  0
    2.3489    1.1450    7.3883 H   0  0  0  0  0  0  0  0  0  0  0  0
    0.0990    1.3074    9.6780 H   0  0  0  0  0  0  0  0  0  0  0  0
   -1.4727   -2.4351    6.8746 H   0  0  0  0  0  0  0  0  0  0  0  0
    1.4690   -3.2489    8.6721 H   0  0  0  0  0  0  0  0  0  0  0  0
    0.4238   -3.6826    7.3275 H   0  0  0  0  0  0  0  0  0  0  0  0
    1.7886   -2.5935    7.0384 H   0  0  0  0  0  0  0  0  0  0  0  0
   -2.7457    0.6078    5.3479 H   0  0  0  0  0  0  0  0  0  0  0  0
   -4.2682   -0.2608    5.0932 H   0  0  0  0  0  0  0  0  0  0  0  0
   -2.7346   -1.1339    5.0935 H   0  0  0  0  0  0  0  0  0  0  0  0
   -4.1598   -2.1664    8.3857 H   0  0  0  0  0  0  0  0  0  0  0  0
   -3.6429   -2.7278    6.7911 H   0  0  0  0  0  0  0  0  0  0  0  0
   -5.1679   -1.8705    6.9594 H   0  0  0  0  0  0  0  0  0  0  0  0
   -5.2494    0.6483    7.0980 H   0  0  0  0  0  0  0  0  0  0  0  0
   -4.6954    0.2150    8.7006 H   0  0  0  0  0  0  0  0  0  0  0  0
   -3.3391    2.2129    6.8329 H   0  0  0  0  0  0  0  0  0  0  0  0
   -4.3629    2.6231    8.1916 H   0  0  0  0  0  0  0  0  0  0  0  0
   -3.4265    0.8312   10.4762 H   0  0  0  0  0  0  0  0  0  0  0  0
   -3.5730    2.5963   10.4678 H   0  0  0  0  0  0  0  0  0  0  0  0
   -2.0546    1.8314   10.9409 H   0  0  0  0  0  0  0  0  0  0  0  0
   -0.8298    3.2518    9.2887 H   0  0  0  0  0  0  0  0  0  0  0  0
   -2.2914    3.9931    8.6539 H   0  0  0  0  0  0  0  0  0  0  0  0
   -1.1823    3.1504    7.5594 H   0  0  0  0  0  0  0  0  0  0  0  0
   -6.9256   -4.6511    0.2587 B   0  0  0  0  0  0  0  0  0  0  0  0
   -5.1098   -2.2493    0.3222 B   0  0  0  0  0  0  0  0  0  0  0  0
   -3.5915   -2.1814    0.2128 B   0  0  0  0  0  0  0  0  0  0  0  0
    0.9993   -2.8754    0.0638 B   0  0  0  0  0  0  0  0  0  0  0  0
    2.4759   -3.0122   -0.2709 B   0  0  0  0  0  0  0  0  0  0  0  0
    5.2994   -3.8314   -0.6672 B   0  0  0  0  0  0  0  0  0  0  0  0
    6.3183   -4.8359   -1.1558 B   0  0  0  0  0  0  0  0  0  0  0  0
   -6.4348   -3.1583    0.2864 B   0  0  0  0  0  0  0  0  0  0  0  0
   -6.7520   -1.6338    0.3164 B   0  0  0  0  0  0  0  0  0  0  0  0
   -2.0526   -2.3173    0.3349 B   0  0  0  0  0  0  0  0  0  0  0  0
   -0.4841   -2.4619    0.2574 B   0  0  0  0  0  0  0  0  0  0  0  0
    4.0184   -2.9011   -0.2872 B   0  0  0  0  0  0  0  0  0  0  0  0
    5.7532   -2.2815   -0.3028 B   0  0  0  0  0  0  0  0  0  0  0  0
    6.8301   -3.2288   -1.0929 B   0  0  0  0  0  0  0  0  0  0  0  0
   -7.6564   -0.2550    0.3431 B   0  0  0  0  0  0  0  0  0  0  0  0
   -6.0374   -0.1395    0.1913 B   0  0  0  0  0  0  0  0  0  0  0  0
   -4.4316   -0.5357    0.2239 B   0  0  0  0  0  0  0  0  0  0  0  0
   -2.7379   -0.6604    0.3290 B   0  0  0  0  0  0  0  0  0  0  0  0
   -1.0518   -0.9157    0.6419 B   0  0  0  0  0  0  0  0  0  0  0  0
    0.5171   -1.1722    0.7257 B   0  0  0  0  0  0  0  0  0  0  0  0
    3.1231   -1.4831   -0.0635 B   0  0  0  0  0  0  0  0  0  0  0  0
    4.7001   -1.1340    0.3402 B   0  0  0  0  0  0  0  0  0  0  0  0
    6.2667   -0.7872    0.2517 B   0  0  0  0  0  0  0  0  0  0  0  0
    7.6720   -0.3517    1.0327 B   0  0  0  0  0  0  0  0  0  0  0  0
   -6.9181    1.2121    0.1915 B   0  0  0  0  0  0  0  0  0  0  0  0
   -3.4184    0.7801    0.0809 B   0  0  0  0  0  0  0  0  0  0  0  0
   -1.6542    0.5326    0.1239 B   0  0  0  0  0  0  0  0  0  0  0  0
    1.8622   -0.4037    0.3246 B   0  0  0  0  0  0  0  0  0  0  0  0
    3.5847   -0.1504    0.7852 B   0  0  0  0  0  0  0  0  0  0  0  0
    6.9910    0.6111   -0.1068 B   0  0  0  0  0  0  0  0  0  0  0  0
    8.3074    1.0629    0.6316 B   0  0  0  0  0  0  0  0  0  0  0  0
   -7.6194    2.8040    0.2986 B   0  0  0  0  0  0  0  0  0  0  0  0
   -6.1238    2.5185   -0.1765 B   0  0  0  0  0  0  0  0  0  0  0  0
   -3.5886    2.3277   -0.2368 B   0  0  0  0  0  0  0  0  0  0  0  0
   -0.9061    1.8195   -0.4198 B   0  0  0  0  0  0  0  0  0  0  0  0
    1.6234    1.0199   -0.4108 B   0  0  0  0  0  0  0  0  0  0  0  0
    3.0108    1.3090    0.5297 B   0  0  0  0  0  0  0  0  0  0  0  0
    6.3729    1.8582   -0.9160 B   0  0  0  0  0  0  0  0  0  0  0  0
   -6.5277    4.0456   -0.1608 B   0  0  0  0  0  0  0  0  0  0  0  0
   -4.8736    3.4948   -0.3884 B   0  0  0  0  0  0  0  0  0  0  0  0
   -3.4155    3.8801   -0.6064 B   0  0  0  0  0  0  0  0  0  0  0  0
   -2.0235    3.2206   -0.6767 B   0  0  0  0  0  0  0  0  0  0  0  0
   -0.4974    3.2796   -0.8970 B   0  0  0  0  0  0  0  0  0  0  0  0
    0.7107    2.3324   -0.7457 B   0  0  0  0  0  0  0  0  0  0  0  0
    2.3353    2.4781   -0.4754 B   0  0  0  0  0  0  0  0  0  0  0  0
    3.8161    2.6195   -0.0941 B   0  0  0  0  0  0  0  0  0  0  0  0
    5.3698    2.8646   -0.1489 B   0  0  0  0  0  0  0  0  0  0  0  0
    6.0551    4.0800    0.6312 B   0  0  0  0  0  0  0  0  0  0  0  0
    6.2041    5.1477    0.1463 H   0  0  0  0  0  0  0  0  0  0  0  0
    8.2184   -1.1210    1.7268 H   0  0  0  0  0  0  0  0  0  0  0  0
    6.6224    1.9818   -2.0674 H   0  0  0  0  0  0  0  0  0  0  0  0
   -7.0900   -5.2506   -0.7538 H   0  0  0  0  0  0  0  0  0  0  0  0
   -6.7912    5.1815   -0.2852 H   0  0  0  0  0  0  0  0  0  0  0  0
    9.1569    1.8466    0.7900 H   0  0  0  0  0  0  0  0  0  0  0  0
   -8.8277   -0.3758    0.3286 H   0  0  0  0  0  0  0  0  0  0  0  0
    6.7839   -5.8690   -1.4465 H   0  0  0  0  0  0  0  0  0  0  0  0
   -8.7247    3.0012    0.6388 H   0  0  0  0  0  0  0  0  0  0  0  0
    7.8918   -2.8835   -1.4737 H   0  0  0  0  0  0  0  0  0  0  0  0
    6.4282    3.9996    1.7485 H   0  0  0  0  0  0  0  0  0  0  0  0
   -7.2249   -5.2823    1.2187 H   0  0  0  0  0  0  0  0  0  0  0  0
  1  2  2  0  0  0  0
  2  3  1  0  0  0  0
  3  4  4  0  0  0  0
  4  5  4  0  0  0  0
  5  6  4  0  0  0  0
  6  7  1  0  0  0  0
  7  8  2  0  0  0  0
  7  9  1  0  0  0  0
  6 10  4  0  0  0  0
  3 11  4  0  0  0  0
 10 11  4  0  0  0  0
  2 12  1  0  0  0  0
 12 13  4  0  0  0  0
 13 14  4  0  0  0  0
 14 15  4  0  0  0  0
 15 16  4  0  0  0  0
 12 17  4  0  0  0  0
 16 17  4  0  0  0  0
 17 18  1  0  0  0  0
 15 19  1  0  0  0  0
 19 20  1  0  0  0  0
 19 21  1  0  0  0  0
 19 22  1  0  0  0  0
 22 23  1  0  0  0  0
 14 24  1  0  0  0  0
 23 24  1  0  0  0  0
 24 25  1  0  0  0  0
 24 26  1  0  0  0  0
  1 27  1  0  0  0  0
  1 28  1  0  0  0  0
  4 29  1  0  0  0  0
  5 30  1  0  0  0  0
  9 31  1  0  0  0  0
 10 32  1  0  0  0  0
 11 33  1  0  0  0  0
 13 34  1  0  0  0  0
 16 35  1  0  0  0  0
 18 36  1  0  0  0  0
 18 37  1  0  0  0  0
 18 38  1  0  0  0  0
 20 39  1  0  0  0  0
 20 40  1  0  0  0  0
 20 41  1  0  0  0  0
 21 42  1  0  0  0  0
 21 43  1  0  0  0  0
 21 44  1  0  0  0  0
 22 45  1  0  0  0  0
 22 46  1  0  0  0  0
 23 47  1  0  0  0  0
 23 48  1  0  0  0  0
 25 49  1  0  0  0  0
 25 50  1  0  0  0  0
 25 51  1  0  0  0  0
 26 52  1  0  0  0  0
 26 53  1  0  0  0  0
 26 54  1  0  0  0  0
 56 57  1  0  0  0  0
 58 59  2  0  0  0  0
 60 61  2  0  0  0  0
 55 62  1  0  0  0  0
 56 62  1  0  0  0  0
 56 63  1  0  0  0  0
 62 63  1  0  0  0  0
 57 64  1  0  0  0  0
 58 65  1  0  0  0  0
 64 65  1  0  0  0  0
 59 66  1  0  0  0  0
 60 66  1  0  0  0  0
 60 67  1  0  0  0  0
 66 67  1  0  0  0  0
 60 68  1  0  0  0  0
 61 68  1  0  0  0  0
 67 68  1  0  0  0  0
 63 69  1  0  0  0  0
 63 70  1  0  0  0  0
 69 70  1  0  0  0  0
 56 71  1  0  0  0  0
 57 71  1  0  0  0  0
 70 71  1  0  0  0  0
 57 72  1  0  0  0  0
 64 72  1  0  0  0  0
 71 72  1  0  0  0  0
 64 73  1  0  0  0  0
 65 73  1  0  0  0  0
 72 73  1  0  0  0  0
 58 74  1  0  0  0  0
 65 74  1  0  0  0  0
 73 74  1  0  0  0  0
 59 75  1  0  0  0  0
 66 75  1  0  0  0  0
 66 76  1  0  0  0  0
 67 76  1  0  0  0  0
 75 76  1  0  0  0  0
 67 77  1  0  0  0  0
 76 77  1  0  0  0  0
 77 78  1  0  0  0  0
 69 79  1  0  0  0  0
 70 79  1  0  0  0  0
 71 80  1  0  0  0  0
 72 80  1  0  0  0  0
 72 81  1  0  0  0  0
 73 81  1  0  0  0  0
 80 81  1  0  0  0  0
 74 82  1  0  0  0  0
 75 82  1  0  0  0  0
 75 83  1  0  0  0  0
 76 83  1  0  0  0  0
 82 83  1  0  0  0  0
 77 84  1  0  0  0  0
 78 84  1  0  0  0  0
 78 85  1  0  0  0  0
 84 85  1  0  0  0  0
 79 86  1  0  0  0  0
 79 87  1  0  0  0  0
 86 87  1  0  0  0  0
 80 88  1  0  0  0  0
 81 89  1  0  0  0  0
 82 90  1  0  0  0  0
 83 91  1  0  0  0  0
 90 91  1  0  0  0  0
 84 92  1  0  0  0  0
 86 93  1  0  0  0  0
 87 93  1  0  0  0  0
 87 94  1  0  0  0  0
 88 94  1  0  0  0  0
 93 94  1  0  0  0  0
 88 95  1  0  0  0  0
 94 95  1  0  0  0  0
 88 96  1  0  0  0  0
 89 96  1  0  0  0  0
 95 96  1  0  0  0  0
 89 97  1  0  0  0  0
 96 97  1  0  0  0  0
 89 98  1  0  0  0  0
 90 98  1  0  0  0  0
 97 98  1  0  0  0  0
 90 99  1  0  0  0  0
 91 99  1  0  0  0  0
 98 99  1  0  0  0  0
 91100  1  0  0  0  0
 99100  1  0  0  0  0
 92101  1  0  0  0  0
100101  1  0  0  0  0
101102  1  0  0  0  0
102103  1  0  0  0  0
 78104  1  0  0  0  0
 92105  1  0  0  0  0
 55106  1  0  0  0  0
 93107  1  0  0  0  0
 85108  1  0  0  0  0
 69109  1  0  0  0  0
 61110  1  0  0  0  0
 86111  1  0  0  0  0
 68112  1  0  0  0  0
102113  1  0  0  0  0
 55114  1  0  0  0  0
M  END
