 xtb: 6.7.1 (edcfbbe)
          09242611023D

 54 57  0     0  0            999 V2000
  -11.3409   -1.5370    1.3274 O   0  0  0  0  0  0  0  0  0  0  0  0
  -10.1530   -1.3427    1.5296 C   0  0  0  0  0  0  0  0  0  0  0  0
   -9.7061   -0.9973    2.7374 O   0  0  0  0  0  0  0  0  0  0  0  0
   -9.1148   -1.4637    0.5028 C   0  0  0  0  0  0  0  0  0  0  0  0
   -7.7781   -1.2191    0.8043 C   0  0  0  0  0  0  0  0  0  0  0  0
   -6.7941   -1.3547   -0.1691 C   0  0  0  0  0  0  0  0  0  0  0  0
   -5.5009   -1.0630    0.2059 N   0  0  0  0  0  0  0  0  0  0  0  0
   -4.5807   -1.4542   -0.5758 N   0  0  0  0  0  0  0  0  0  0  0  0
   -3.2956   -1.0612   -0.3128 C   0  0  0  0  0  0  0  0  0  0  0  0
   -2.2621   -1.8591   -0.8213 C   0  0  0  0  0  0  0  0  0  0  0  0
   -0.9506   -1.4833   -0.6546 C   0  0  0  0  0  0  0  0  0  0  0  0
   -0.6209   -0.2837   -0.0143 C   0  0  0  0  0  0  0  0  0  0  0  0
    0.7767    0.1165    0.1413 C   0  0  0  0  0  0  0  0  0  0  0  0
    1.1594    1.4555    0.0075 C   0  0  0  0  0  0  0  0  0  0  0  0
    2.4769    1.8302    0.1287 C   0  0  0  0  0  0  0  0  0  0  0  0
    3.4580    0.8756    0.4270 C   0  0  0  0  0  0  0  0  0  0  0  0
    4.7619    1.2967    0.4615 N   0  0  0  0  0  0  0  0  0  0  0  0
    5.5915    0.5930    1.1162 N   0  0  0  0  0  0  0  0  0  0  0  0
    6.9210    0.9338    1.0135 C   0  0  0  0  0  0  0  0  0  0  0  0
    7.7915    0.3847    1.9709 C   0  0  0  0  0  0  0  0  0  0  0  0
    9.1391    0.6306    1.9146 C   0  0  0  0  0  0  0  0  0  0  0  0
    9.6834    1.4151    0.8885 C   0  0  0  0  0  0  0  0  0  0  0  0
   10.9999    1.6116    0.8728 O   0  0  0  0  0  0  0  0  0  0  0  0
    8.8165    1.9567   -0.0893 C   0  0  0  0  0  0  0  0  0  0  0  0
    9.3784    2.7662   -1.1743 C   0  0  0  0  0  0  0  0  0  0  0  0
   10.5666    3.0184   -1.2950 O   0  0  0  0  0  0  0  0  0  0  0  0
    8.4828    3.2259   -2.0483 O   0  0  0  0  0  0  0  0  0  0  0  0
    7.4490    1.7177   -0.0115 C   0  0  0  0  0  0  0  0  0  0  0  0
    3.0783   -0.4677    0.5708 C   0  0  0  0  0  0  0  0  0  0  0  0
    1.7634   -0.8358    0.4191 C   0  0  0  0  0  0  0  0  0  0  0  0
   -1.6574    0.5227    0.4675 C   0  0  0  0  0  0  0  0  0  0  0  0
   -2.9710    0.1401    0.3354 C   0  0  0  0  0  0  0  0  0  0  0  0
   -7.1696   -1.7231   -1.4763 C   0  0  0  0  0  0  0  0  0  0  0  0
   -8.4842   -1.9484   -1.7879 C   0  0  0  0  0  0  0  0  0  0  0  0
   -9.4841   -1.8316   -0.8118 C   0  0  0  0  0  0  0  0  0  0  0  0
  -10.7446   -2.0685   -1.1674 O   0  0  0  0  0  0  0  0  0  0  0  0
  -10.4490   -0.9392    3.3586 H   0  0  0  0  0  0  0  0  0  0  0  0
   -7.4962   -0.9378    1.8063 H   0  0  0  0  0  0  0  0  0  0  0  0
   -2.5178   -2.7802   -1.3221 H   0  0  0  0  0  0  0  0  0  0  0  0
   -0.1627   -2.1042   -1.0546 H   0  0  0  0  0  0  0  0  0  0  0  0
    0.4125    2.1988   -0.2299 H   0  0  0  0  0  0  0  0  0  0  0  0
    2.7748    2.8615    0.0167 H   0  0  0  0  0  0  0  0  0  0  0  0
    7.3716   -0.2228    2.7576 H   0  0  0  0  0  0  0  0  0  0  0  0
    9.8160    0.2242    2.6494 H   0  0  0  0  0  0  0  0  0  0  0  0
   11.2304    2.1733    0.0967 H   0  0  0  0  0  0  0  0  0  0  0  0
    8.9286    3.7514   -2.7311 H   0  0  0  0  0  0  0  0  0  0  0  0
    6.7842    2.1272   -0.7562 H   0  0  0  0  0  0  0  0  0  0  0  0
    3.8456   -1.1966    0.7862 H   0  0  0  0  0  0  0  0  0  0  0  0
    1.4802   -1.8707    0.5454 H   0  0  0  0  0  0  0  0  0  0  0  0
   -1.4180    1.4438    0.9788 H   0  0  0  0  0  0  0  0  0  0  0  0
   -3.7763    0.7558    0.7078 H   0  0  0  0  0  0  0  0  0  0  0  0
   -6.3956   -1.8120   -2.2237 H   0  0  0  0  0  0  0  0  0  0  0  0
   -8.7867   -2.2220   -2.7866 H   0  0  0  0  0  0  0  0  0  0  0  0
  -11.3272   -1.9476   -0.3820 H   0  0  0  0  0  0  0  0  0  0  0  0
  1  2  2  0  0  0  0
  2  3  1  0  0  0  0
  2  4  1  0  0  0  0
  4  5  4  0  0  0  0
  5  6  4  0  0  0  0
  6  7  1  0  0  0  0
  7  8  2  0  0  0  0
  8  9  1  0  0  0  0
  9 10  4  0  0  0  0
 10 11  4  0  0  0  0
 11 12  4  0  0  0  0
 12 13  1  0  0  0  0
 13 14  4  0  0  0  0
 14 15  4  0  0  0  0
 15 16  4  0  0  0  0
 16 17  1  0  0  0  0
 17 18  2  0  0  0  0
 18 19  1  0  0  0  0
 19 20  4  0  0  0  0
 20 21  2  0  0  0  0
 21 22  4  0  0  0  0
 22 23  1  0  0  0  0
 22 24  4  0  0  0  0
 24 25  1  0  0  0  0
 25 26  2  0  0  0  0
 25 27  1  0  0  0  0
 19 28  4  0  0  0  0
 24 28  4  0  0  0  0
 16 29  4  0  0  0  0
 13 30  4  0  0  0  0
 29 30  4  0  0  0  0
 12 31  4  0  0  0  0
  9 32  4  0  0  0  0
 31 32  4  0  0  0  0
  6 33  4  0  0  0  0
 33 34  2  0  0  0  0
  4 35  4  0  0  0  0
 34 35  4  0  0  0  0
 35 36  1  0  0  0  0
  3 37  1  0  0  0  0
  5 38  1  0  0  0  0
 10 39  1  0  0  0  0
 11 40  1  0  0  0  0
 14 41  1  0  0  0  0
 15 42  1  0  0  0  0
 20 43  1  0  0  0  0
 21 44  1  0  0  0  0
 23 45  1  0  0  0  0
 27 46  1  0  0  0  0
 28 47  1  0  0  0  0
 29 48  1  0  0  0  0
 30 49  1  0  0  0  0
 31 50  1  0  0  0  0
 32 51  1  0  0  0  0
 33 52  1  0  0  0  0
 34 53  1  0  0  0  0
 36 54  1  0  0  0  0
M  END
