 xtb: 6.7.1 (edcfbbe)
          09242620043D

 60110  0     0  0            999 V2000
   -5.8734    3.6046   -0.3249 B   0  0  0  0  0  0  0  0  0  0  0  0
   -5.9115    1.8892   -0.3336 B   0  0  0  0  0  0  0  0  0  0  0  0
   -4.3741    4.3163   -0.7902 B   0  0  0  0  0  0  0  0  0  0  0  0
   -4.4377    2.7007   -0.3013 B   0  0  0  0  0  0  0  0  0  0  0  0
   -4.4948    1.0550    0.1185 B   0  0  0  0  0  0  0  0  0  0  0  0
   -6.0241   -1.4311    0.3801 B   0  0  0  0  0  0  0  0  0  0  0  0
   -6.0931   -3.0070    1.0421 B   0  0  0  0  0  0  0  0  0  0  0  0
   -4.5495   -0.5815    0.4658 B   0  0  0  0  0  0  0  0  0  0  0  0
   -4.6034   -2.2596    0.7303 B   0  0  0  0  0  0  0  0  0  0  0  0
   -4.6486   -3.9379    0.9232 B   0  0  0  0  0  0  0  0  0  0  0  0
   -2.9377    3.5001   -0.4217 B   0  0  0  0  0  0  0  0  0  0  0  0
   -3.0026    1.8545    0.0517 B   0  0  0  0  0  0  0  0  0  0  0  0
   -1.4665    4.3301   -0.2616 B   0  0  0  0  0  0  0  0  0  0  0  0
   -1.5145    2.6551   -0.0511 B   0  0  0  0  0  0  0  0  0  0  0  0
   -1.5634    0.9687    0.1535 B   0  0  0  0  0  0  0  0  0  0  0  0
   -3.1111   -1.4421    0.7105 B   0  0  0  0  0  0  0  0  0  0  0  0
   -3.1594   -3.1331    0.9681 B   0  0  0  0  0  0  0  0  0  0  0  0
   -1.6184   -0.6758    0.4991 B   0  0  0  0  0  0  0  0  0  0  0  0
   -1.6789   -2.3112    0.9530 B   0  0  0  0  0  0  0  0  0  0  0  0
   -1.7402   -3.9270    1.4460 B   0  0  0  0  0  0  0  0  0  0  0  0
   -0.0252    3.4687   -0.0879 B   0  0  0  0  0  0  0  0  0  0  0  0
   -0.0707    1.7543    0.0334 B   0  0  0  0  0  0  0  0  0  0  0  0
    1.4639    4.2544   -0.1683 B   0  0  0  0  0  0  0  0  0  0  0  0
    1.4130    2.5844    0.0735 B   0  0  0  0  0  0  0  0  0  0  0  0
    1.3596    0.9168    0.3751 B   0  0  0  0  0  0  0  0  0  0  0  0
   -0.1841   -1.5212    0.8005 B   0  0  0  0  0  0  0  0  0  0  0  0
   -0.2409   -3.1854    1.1785 B   0  0  0  0  0  0  0  0  0  0  0  0
    1.3034   -0.7219    0.7439 B   0  0  0  0  0  0  0  0  0  0  0  0
    1.2517   -2.3940    1.0262 B   0  0  0  0  0  0  0  0  0  0  0  0
    1.2027   -4.0713    1.2259 B   0  0  0  0  0  0  0  0  0  0  0  0
    2.9057    3.3626   -0.1445 B   0  0  0  0  0  0  0  0  0  0  0  0
    2.8477    1.7175    0.3270 B   0  0  0  0  0  0  0  0  0  0  0  0
    4.4045    4.1081   -0.3811 B   0  0  0  0  0  0  0  0  0  0  0  0
    4.3469    2.4838    0.0677 B   0  0  0  0  0  0  0  0  0  0  0  0
    4.2874    0.8372    0.4807 B   0  0  0  0  0  0  0  0  0  0  0  0
    2.7406   -1.5864    0.9545 B   0  0  0  0  0  0  0  0  0  0  0  0
    2.6798   -3.2488    1.3470 B   0  0  0  0  0  0  0  0  0  0  0  0
    4.2292   -0.7828    0.9009 B   0  0  0  0  0  0  0  0  0  0  0  0
    4.1730   -2.4317    1.3059 B   0  0  0  0  0  0  0  0  0  0  0  0
    4.1103   -4.0543    1.7620 B   0  0  0  0  0  0  0  0  0  0  0  0
    5.8194    3.3304    0.2269 B   0  0  0  0  0  0  0  0  0  0  0  0
    5.7793    1.6092    0.2056 B   0  0  0  0  0  0  0  0  0  0  0  0
    5.6495   -1.6216    1.3232 B   0  0  0  0  0  0  0  0  0  0  0  0
    5.6125   -3.3397    1.3166 B   0  0  0  0  0  0  0  0  0  0  0  0
   -6.8097    4.2687   -0.0809 H   0  0  0  0  0  0  0  0  0  0  0  0
   -6.8629    1.3389   -0.7350 H   0  0  0  0  0  0  0  0  0  0  0  0
   -4.3807    5.3216   -1.3990 H   0  0  0  0  0  0  0  0  0  0  0  0
   -6.9434   -1.0079   -0.2062 H   0  0  0  0  0  0  0  0  0  0  0  0
   -7.0607   -3.4762    1.5118 H   0  0  0  0  0  0  0  0  0  0  0  0
   -4.7280   -5.1036    0.7969 H   0  0  0  0  0  0  0  0  0  0  0  0
   -1.4610    5.5057   -0.2217 H   0  0  0  0  0  0  0  0  0  0  0  0
   -1.8009   -4.9955    1.9335 H   0  0  0  0  0  0  0  0  0  0  0  0
    1.5084    5.4271   -0.2527 H   0  0  0  0  0  0  0  0  0  0  0  0
    1.1802   -5.2472    1.2162 H   0  0  0  0  0  0  0  0  0  0  0  0
    4.5198    5.1039   -0.9960 H   0  0  0  0  0  0  0  0  0  0  0  0
    4.1118   -5.0631    2.3656 H   0  0  0  0  0  0  0  0  0  0  0  0
    6.7558    3.9499    0.5675 H   0  0  0  0  0  0  0  0  0  0  0  0
    6.7354    1.0117   -0.1161 H   0  0  0  0  0  0  0  0  0  0  0  0
    6.5859   -1.0596    1.7476 H   0  0  0  0  0  0  0  0  0  0  0  0
    6.5468   -4.0104    1.0867 H   0  0  0  0  0  0  0  0  0  0  0  0
  1  2  1  0  0  0  0
  1  3  1  0  0  0  0
  1  4  1  0  0  0  0
  2  4  1  0  0  0  0
  3  4  1  0  0  0  0
  2  5  1  0  0  0  0
  4  5  1  0  0  0  0
  6  7  1  0  0  0  0
  5  8  1  0  0  0  0
  6  8  1  0  0  0  0
  6  9  1  0  0  0  0
  7  9  1  0  0  0  0
  8  9  1  0  0  0  0
  7 10  1  0  0  0  0
  9 10  1  0  0  0  0
  3 11  1  0  0  0  0
  4 11  1  0  0  0  0
  4 12  1  0  0  0  0
  5 12  1  0  0  0  0
 11 12  1  0  0  0  0
 11 13  1  0  0  0  0
 11 14  1  0  0  0  0
 12 14  1  0  0  0  0
 13 14  1  0  0  0  0
 12 15  1  0  0  0  0
 14 15  1  0  0  0  0
  8 16  1  0  0  0  0
  9 16  1  0  0  0  0
  9 17  1  0  0  0  0
 10 17  1  0  0  0  0
 16 17  1  0  0  0  0
 15 18  1  0  0  0  0
 16 18  1  0  0  0  0
 16 19  1  0  0  0  0
 17 19  1  0  0  0  0
 18 19  1  0  0  0  0
 17 20  1  0  0  0  0
 19 20  1  0  0  0  0
 13 21  1  0  0  0  0
 14 21  1  0  0  0  0
 14 22  1  0  0  0  0
 15 22  1  0  0  0  0
 21 22  1  0  0  0  0
 21 23  1  0  0  0  0
 21 24  1  0  0  0  0
 22 24  1  0  0  0  0
 23 24  1  0  0  0  0
 22 25  1  0  0  0  0
 24 25  1  0  0  0  0
 18 26  1  0  0  0  0
 19 26  1  0  0  0  0
 19 27  1  0  0  0  0
 20 27  1  0  0  0  0
 26 27  1  0  0  0  0
 25 28  1  0  0  0  0
 26 28  1  0  0  0  0
 26 29  1  0  0  0  0
 27 29  1  0  0  0  0
 28 29  1  0  0  0  0
 27 30  1  0  0  0  0
 29 30  1  0  0  0  0
 23 31  1  0  0  0  0
 24 31  1  0  0  0  0
 24 32  1  0  0  0  0
 25 32  1  0  0  0  0
 31 32  1  0  0  0  0
 31 33  1  0  0  0  0
 31 34  1  0  0  0  0
 32 34  1  0  0  0  0
 33 34  1  0  0  0  0
 32 35  1  0  0  0  0
 34 35  1  0  0  0  0
 28 36  1  0  0  0  0
 29 36  1  0  0  0  0
 29 37  1  0  0  0  0
 30 37  1  0  0  0  0
 36 37  1  0  0  0  0
 35 38  1  0  0  0  0
 36 38  1  0  0  0  0
 36 39  1  0  0  0  0
 37 39  1  0  0  0  0
 38 39  1  0  0  0  0
 37 40  1  0  0  0  0
 39 40  1  0  0  0  0
 33 41  1  0  0  0  0
 34 41  1  0  0  0  0
 34 42  1  0  0  0  0
 35 42  1  0  0  0  0
 41 42  1  0  0  0  0
 38 43  1  0  0  0  0
 39 43  1  0  0  0  0
 39 44  1  0  0  0  0
 40 44  1  0  0  0  0
 43 44  1  0  0  0  0
  1 45  1  0  0  0  0
  2 46  1  0  0  0  0
  3 47  1  0  0  0  0
  6 48  1  0  0  0  0
  7 49  1  0  0  0  0
 10 50  1  0  0  0  0
 13 51  1  0  0  0  0
 20 52  1  0  0  0  0
 23 53  1  0  0  0  0
 30 54  1  0  0  0  0
 33 55  1  0  0  0  0
 40 56  1  0  0  0  0
 41 57  1  0  0  0  0
 42 58  1  0  0  0  0
 43 59  1  0  0  0  0
 44 60  1  0  0  0  0
M  END
