 xtb: 6.7.1pre (5071a88)
          08312622053D

 98156  0     0  0            999 V2000
   -6.0979   -0.1051    6.9512 C   0  0  0  0  0  0  0  0  0  0  0  0
   -4.9446    0.3950    6.2356 N   0  0  0  0  0  0  0  0  0  0  0  0
   -4.9957    1.7895    5.8620 C   0  0  0  0  0  0  0  0  0  0  0  0
   -3.7041   -0.1646    6.5132 C   0  0  0  0  0  0  0  0  0  0  0  0
   -3.5831   -1.3937    7.1834 C   0  0  0  0  0  0  0  0  0  0  0  0
   -2.3567   -1.9496    7.4377 C   0  0  0  0  0  0  0  0  0  0  0  0
   -1.1476   -1.3253    7.0634 C   0  0  0  0  0  0  0  0  0  0  0  0
   -0.0065   -1.9274    7.4269 N   0  0  0  0  0  0  0  0  0  0  0  0
    1.1770   -1.3136    7.2907 C   0  0  0  0  0  0  0  0  0  0  0  0
    2.2981   -1.9289    7.8870 C   0  0  0  0  0  0  0  0  0  0  0  0
    3.5441   -1.3580    7.8790 C   0  0  0  0  0  0  0  0  0  0  0  0
    3.7767   -0.1205    7.2559 C   0  0  0  0  0  0  0  0  0  0  0  0
    5.0361    0.4642    7.2261 N   0  0  0  0  0  0  0  0  0  0  0  0
    5.1167    1.8883    6.9915 C   0  0  0  0  0  0  0  0  0  0  0  0
    6.0783   -0.0977    8.0547 C   0  0  0  0  0  0  0  0  0  0  0  0
    2.6880    0.4880    6.6241 C   0  0  0  0  0  0  0  0  0  0  0  0
    1.4318   -0.0865    6.6373 C   0  0  0  0  0  0  0  0  0  0  0  0
    0.1405    0.7646    5.7843 S   0  0  0  0  0  0  0  0  0  0  0  0
   -1.2843   -0.1048    6.3653 C   0  0  0  0  0  0  0  0  0  0  0  0
   -2.5199    0.4536    6.1003 C   0  0  0  0  0  0  0  0  0  0  0  0
   -6.2477   -1.1609    6.7278 H   0  0  0  0  0  0  0  0  0  0  0  0
   -6.0044    0.0164    8.0370 H   0  0  0  0  0  0  0  0  0  0  0  0
   -6.9837    0.4315    6.6193 H   0  0  0  0  0  0  0  0  0  0  0  0
   -6.0337    2.0827    5.7222 H   0  0  0  0  0  0  0  0  0  0  0  0
   -4.5501    2.4440    6.6214 H   0  0  0  0  0  0  0  0  0  0  0  0
   -4.4728    1.9401    4.9170 H   0  0  0  0  0  0  0  0  0  0  0  0
   -4.4576   -1.9200    7.5266 H   0  0  0  0  0  0  0  0  0  0  0  0
   -2.2761   -2.8820    7.9725 H   0  0  0  0  0  0  0  0  0  0  0  0
    2.1263   -2.8666    8.3901 H   0  0  0  0  0  0  0  0  0  0  0  0
    4.3413   -1.8763    8.3845 H   0  0  0  0  0  0  0  0  0  0  0  0
    4.8408    2.1175    5.9607 H   0  0  0  0  0  0  0  0  0  0  0  0
    6.1400    2.2206    7.1449 H   0  0  0  0  0  0  0  0  0  0  0  0
    4.4640    2.4583    7.6631 H   0  0  0  0  0  0  0  0  0  0  0  0
    6.2369   -1.1431    7.7923 H   0  0  0  0  0  0  0  0  0  0  0  0
    7.0074    0.4365    7.8663 H   0  0  0  0  0  0  0  0  0  0  0  0
    5.8506   -0.0330    9.1263 H   0  0  0  0  0  0  0  0  0  0  0  0
    2.7974    1.4313    6.1133 H   0  0  0  0  0  0  0  0  0  0  0  0
   -2.5324    1.3917    5.5715 H   0  0  0  0  0  0  0  0  0  0  0  0
   -6.3069   -2.6678   -0.2035 B   0  0  0  0  0  0  0  0  0  0  0  0
   -3.8666   -3.4507    0.9016 B   0  0  0  0  0  0  0  0  0  0  0  0
   -1.1006   -4.2755    2.1364 B   0  0  0  0  0  0  0  0  0  0  0  0
    1.6998   -4.2764    1.8084 B   0  0  0  0  0  0  0  0  0  0  0  0
    3.0235   -3.6679    1.2080 B   0  0  0  0  0  0  0  0  0  0  0  0
    5.8960   -3.8190    0.0186 B   0  0  0  0  0  0  0  0  0  0  0  0
   -4.6608   -2.3815   -0.3643 B   0  0  0  0  0  0  0  0  0  0  0  0
   -2.4935   -2.3854    0.7434 B   0  0  0  0  0  0  0  0  0  0  0  0
   -1.2729   -2.5058    1.8975 B   0  0  0  0  0  0  0  0  0  0  0  0
    0.3013   -3.2241    1.6069 B   0  0  0  0  0  0  0  0  0  0  0  0
    3.2004   -2.0591    0.7739 B   0  0  0  0  0  0  0  0  0  0  0  0
    5.2495   -2.4985   -0.6156 B   0  0  0  0  0  0  0  0  0  0  0  0
   -4.3061   -1.1201   -1.3425 B   0  0  0  0  0  0  0  0  0  0  0  0
   -3.0255   -1.4291   -0.3567 B   0  0  0  0  0  0  0  0  0  0  0  0
   -1.0259   -1.0052    2.3835 B   0  0  0  0  0  0  0  0  0  0  0  0
    0.4194   -1.5761    1.3585 B   0  0  0  0  0  0  0  0  0  0  0  0
    4.3113   -1.1981    0.1004 B   0  0  0  0  0  0  0  0  0  0  0  0
    6.8309   -2.4422   -0.4211 B   0  0  0  0  0  0  0  0  0  0  0  0
   -5.1315   -0.4641   -2.6662 B   0  0  0  0  0  0  0  0  0  0  0  0
   -3.2519    0.1102   -0.6711 B   0  0  0  0  0  0  0  0  0  0  0  0
   -1.1819    0.5268    2.4866 B   0  0  0  0  0  0  0  0  0  0  0  0
   -0.0114   -0.0852    1.3584 B   0  0  0  0  0  0  0  0  0  0  0  0
    4.9784    0.2982    0.0729 B   0  0  0  0  0  0  0  0  0  0  0  0
    5.8459   -0.9941   -0.6211 B   0  0  0  0  0  0  0  0  0  0  0  0
   -6.0534    0.9649   -2.1861 B   0  0  0  0  0  0  0  0  0  0  0  0
   -3.1861    1.5632   -0.1602 B   0  0  0  0  0  0  0  0  0  0  0  0
   -1.4124    2.0565    2.2926 B   0  0  0  0  0  0  0  0  0  0  0  0
    0.1440    1.4620    1.6384 B   0  0  0  0  0  0  0  0  0  0  0  0
    4.2809    1.6666    0.6908 B   0  0  0  0  0  0  0  0  0  0  0  0
    6.2962    0.5239   -1.0734 B   0  0  0  0  0  0  0  0  0  0  0  0
   -5.6088    1.8295   -0.8375 B   0  0  0  0  0  0  0  0  0  0  0  0
   -3.0215    2.9524    0.5053 B   0  0  0  0  0  0  0  0  0  0  0  0
   -1.9985    3.4324    1.7502 B   0  0  0  0  0  0  0  0  0  0  0  0
   -0.1746    3.0908    1.7227 B   0  0  0  0  0  0  0  0  0  0  0  0
    2.9451    2.2111    1.3379 B   0  0  0  0  0  0  0  0  0  0  0  0
    5.7870    1.7699   -0.1633 B   0  0  0  0  0  0  0  0  0  0  0  0
   -5.9005    3.2757   -0.1293 B   0  0  0  0  0  0  0  0  0  0  0  0
   -4.5524    3.9619    0.5493 B   0  0  0  0  0  0  0  0  0  0  0  0
   -1.8863    5.1499    1.4949 B   0  0  0  0  0  0  0  0  0  0  0  0
    1.0395    4.2581    1.8212 B   0  0  0  0  0  0  0  0  0  0  0  0
    2.5206    3.8316    1.5172 B   0  0  0  0  0  0  0  0  0  0  0  0
    5.3379    3.0648    0.4996 B   0  0  0  0  0  0  0  0  0  0  0  0
   -5.3505   -3.5719    0.5226 B   0  0  0  0  0  0  0  0  0  0  0  0
   -2.4911   -3.7564    1.6156 B   0  0  0  0  0  0  0  0  0  0  0  0
    0.3256   -4.8214    2.1731 B   0  0  0  0  0  0  0  0  0  0  0  0
    1.7720   -2.4221    1.3933 B   0  0  0  0  0  0  0  0  0  0  0  0
    4.3675   -3.4159    0.4703 B   0  0  0  0  0  0  0  0  0  0  0  0
   -4.6332    2.3399    0.3488 B   0  0  0  0  0  0  0  0  0  0  0  0
   -3.2454    4.6524    1.0176 B   0  0  0  0  0  0  0  0  0  0  0  0
   -0.4081    4.8006    1.6805 B   0  0  0  0  0  0  0  0  0  0  0  0
    1.4229    2.4912    1.6814 B   0  0  0  0  0  0  0  0  0  0  0  0
    4.0240    3.5255    1.1464 B   0  0  0  0  0  0  0  0  0  0  0  0
   -4.7462    0.4964   -1.4240 B   0  0  0  0  0  0  0  0  0  0  0  0
   -7.2835   -2.1689   -0.6063 H   0  0  0  0  0  0  0  0  0  0  0  0
   -5.2846   -0.9312   -3.7298 H   0  0  0  0  0  0  0  0  0  0  0  0
   -7.0049    1.1926   -2.8204 H   0  0  0  0  0  0  0  0  0  0  0  0
   -6.9529    3.7962   -0.0782 H   0  0  0  0  0  0  0  0  0  0  0  0
    6.3206   -4.9070   -0.0307 H   0  0  0  0  0  0  0  0  0  0  0  0
    7.9873   -2.4188   -0.5743 H   0  0  0  0  0  0  0  0  0  0  0  0
    7.0098    0.6876   -1.9918 H   0  0  0  0  0  0  0  0  0  0  0  0
  1  2  1  0  0  0  0
  2  3  1  0  0  0  0
  2  4  1  0  0  0  0
  4  5  4  0  0  0  0
  5  6  2  0  0  0  0
  6  7  4  0  0  0  0
  7  8  4  0  0  0  0
  8  9  4  0  0  0  0
  9 10  4  0  0  0  0
 10 11  2  0  0  0  0
 11 12  4  0  0  0  0
 12 13  1  0  0  0  0
 13 14  1  0  0  0  0
 13 15  1  0  0  0  0
 12 16  4  0  0  0  0
  9 17  4  0  0  0  0
 16 17  4  0  0  0  0
 17 18  1  0  0  0  0
  7 19  4  0  0  0  0
 18 19  1  0  0  0  0
  4 20  4  0  0  0  0
 19 20  4  0  0  0  0
  1 21  1  0  0  0  0
  1 22  1  0  0  0  0
  1 23  1  0  0  0  0
  3 24  1  0  0  0  0
  3 25  1  0  0  0  0
  3 26  1  0  0  0  0
  5 27  1  0  0  0  0
  6 28  1  0  0  0  0
 10 29  1  0  0  0  0
 11 30  1  0  0  0  0
 14 31  1  0  0  0  0
 14 32  1  0  0  0  0
 14 33  1  0  0  0  0
 15 34  1  0  0  0  0
 15 35  1  0  0  0  0
 15 36  1  0  0  0  0
 16 37  1  0  0  0  0
 20 38  1  0  0  0  0
 42 43  1  0  0  0  0
 39 45  1  0  0  0  0
 40 45  1  0  0  0  0
 40 46  1  0  0  0  0
 41 47  1  0  0  0  0
 46 47  1  0  0  0  0
 41 48  1  0  0  0  0
 42 48  1  0  0  0  0
 47 48  1  0  0  0  0
 43 49  1  0  0  0  0
 44 50  1  0  0  0  0
 45 51  1  0  0  0  0
 45 52  1  0  0  0  0
 46 52  1  0  0  0  0
 51 52  1  0  0  0  0
 47 53  1  0  0  0  0
 48 54  1  0  0  0  0
 53 54  1  0  0  0  0
 49 55  1  0  0  0  0
 50 55  1  0  0  0  0
 44 56  1  0  0  0  0
 50 56  1  0  0  0  0
 51 57  1  0  0  0  0
 51 58  1  0  0  0  0
 52 58  1  0  0  0  0
 53 59  1  0  0  0  0
 53 60  1  0  0  0  0
 54 60  1  0  0  0  0
 59 60  1  0  0  0  0
 55 61  1  0  0  0  0
 50 62  1  0  0  0  0
 55 62  1  0  0  0  0
 56 62  1  0  0  0  0
 61 62  1  0  0  0  0
 57 63  1  0  0  0  0
 58 64  1  0  0  0  0
 59 65  1  0  0  0  0
 59 66  1  0  0  0  0
 60 66  1  0  0  0  0
 65 66  1  0  0  0  0
 61 67  1  0  0  0  0
 61 68  1  0  0  0  0
 62 68  1  0  0  0  0
 63 69  1  0  0  0  0
 64 70  1  0  0  0  0
 65 71  1  0  0  0  0
 70 71  1  0  0  0  0
 65 72  1  0  0  0  0
 66 72  1  0  0  0  0
 71 72  1  0  0  0  0
 67 73  1  0  0  0  0
 61 74  1  0  0  0  0
 67 74  1  0  0  0  0
 68 74  1  0  0  0  0
 69 75  1  0  0  0  0
 70 76  1  0  0  0  0
 75 76  1  0  0  0  0
 71 77  1  0  0  0  0
 72 78  1  0  0  0  0
 73 79  1  0  0  0  0
 78 79  1  0  0  0  0
 67 80  1  0  0  0  0
 74 80  1  0  0  0  0
 39 81  2  0  0  0  0
 40 81  1  0  0  0  0
 45 81  1  0  0  0  0
 40 82  1  0  0  0  0
 41 82  1  0  0  0  0
 46 82  1  0  0  0  0
 47 82  1  0  0  0  0
 41 83  1  0  0  0  0
 42 83  1  0  0  0  0
 48 83  1  0  0  0  0
 42 84  1  0  0  0  0
 43 84  1  0  0  0  0
 48 84  1  0  0  0  0
 49 84  1  0  0  0  0
 54 84  1  0  0  0  0
 43 85  1  0  0  0  0
 44 85  1  0  0  0  0
 49 85  1  0  0  0  0
 50 85  1  0  0  0  0
 64 86  1  0  0  0  0
 69 86  1  0  0  0  0
 70 86  1  0  0  0  0
 75 86  1  0  0  0  0
 76 86  1  0  0  0  0
 70 87  1  0  0  0  0
 71 87  1  0  0  0  0
 76 87  1  0  0  0  0
 77 87  1  0  0  0  0
 71 88  1  0  0  0  0
 72 88  1  0  0  0  0
 77 88  1  0  0  0  0
 78 88  1  0  0  0  0
 66 89  1  0  0  0  0
 72 89  1  0  0  0  0
 73 89  1  0  0  0  0
 78 89  1  0  0  0  0
 79 89  1  0  0  0  0
 67 90  1  0  0  0  0
 73 90  1  0  0  0  0
 79 90  1  0  0  0  0
 80 90  1  0  0  0  0
 51 91  1  0  0  0  0
 57 91  1  0  0  0  0
 58 91  1  0  0  0  0
 63 91  1  0  0  0  0
 69 91  1  0  0  0  0
 39 92  1  0  0  0  0
 57 93  1  0  0  0  0
 63 94  1  0  0  0  0
 75 95  1  0  0  0  0
 44 96  1  0  0  0  0
 56 97  1  0  0  0  0
 68 98  1  0  0  0  0
M  CHG  1   1   1
M  END
