 xtb: 6.7.1pre (5071a88)
          08312620183D

 98129  0     0  0            999 V2000
   -6.2700   -0.3328    3.2460 C   0  0  0  0  0  0  0  0  0  0  0  0
   -5.1097    0.5563    3.2013 N   0  0  0  0  0  0  0  0  0  0  0  0
   -5.2387    1.7172    2.3209 C   0  0  0  0  0  0  0  0  0  0  0  0
   -3.8393    0.0300    3.4534 C   0  0  0  0  0  0  0  0  0  0  0  0
   -3.6535   -1.2210    4.0561 C   0  0  0  0  0  0  0  0  0  0  0  0
   -2.3754   -1.7430    4.3243 C   0  0  0  0  0  0  0  0  0  0  0  0
   -1.2176   -1.0567    4.0226 C   0  0  0  0  0  0  0  0  0  0  0  0
   -0.0533   -1.6636    4.3252 N   0  0  0  0  0  0  0  0  0  0  0  0
    1.1484   -1.1022    4.0883 C   0  0  0  0  0  0  0  0  0  0  0  0
    2.2607   -1.8368    4.4428 C   0  0  0  0  0  0  0  0  0  0  0  0
    3.5707   -1.3625    4.2510 C   0  0  0  0  0  0  0  0  0  0  0  0
    3.8369   -0.1044    3.6950 C   0  0  0  0  0  0  0  0  0  0  0  0
    5.1391    0.3608    3.4893 N   0  0  0  0  0  0  0  0  0  0  0  0
    5.3506    1.7748    3.1807 C   0  0  0  0  0  0  0  0  0  0  0  0
    6.2494   -0.3097    4.1649 C   0  0  0  0  0  0  0  0  0  0  0  0
    2.7060    0.6352    3.3191 C   0  0  0  0  0  0  0  0  0  0  0  0
    1.3930    0.1568    3.5129 C   0  0  0  0  0  0  0  0  0  0  0  0
    0.0389    1.2135    2.9967 S   0  0  0  0  0  0  0  0  0  0  0  0
   -1.3812    0.2085    3.4324 C   0  0  0  0  0  0  0  0  0  0  0  0
   -2.6621    0.7348    3.1623 C   0  0  0  0  0  0  0  0  0  0  0  0
   -6.1758   -1.1397    2.5109 H   0  0  0  0  0  0  0  0  0  0  0  0
   -6.4048   -0.7588    4.2460 H   0  0  0  0  0  0  0  0  0  0  0  0
   -7.1961    0.2096    3.0244 H   0  0  0  0  0  0  0  0  0  0  0  0
   -6.2866    2.0178    2.2095 H   0  0  0  0  0  0  0  0  0  0  0  0
   -4.7199    2.5883    2.7352 H   0  0  0  0  0  0  0  0  0  0  0  0
   -4.8499    1.4973    1.3205 H   0  0  0  0  0  0  0  0  0  0  0  0
   -4.4994   -1.8379    4.3440 H   0  0  0  0  0  0  0  0  0  0  0  0
   -2.2985   -2.7234    4.7904 H   0  0  0  0  0  0  0  0  0  0  0  0
    2.1208   -2.8217    4.8842 H   0  0  0  0  0  0  0  0  0  0  0  0
    4.3756   -2.0254    4.5540 H   0  0  0  0  0  0  0  0  0  0  0  0
    4.8686    2.0508    2.2367 H   0  0  0  0  0  0  0  0  0  0  0  0
    6.4153    1.9988    3.0499 H   0  0  0  0  0  0  0  0  0  0  0  0
    4.9752    2.4139    3.9875 H   0  0  0  0  0  0  0  0  0  0  0  0
    6.3371   -1.3531    3.8434 H   0  0  0  0  0  0  0  0  0  0  0  0
    7.2079    0.1610    3.9186 H   0  0  0  0  0  0  0  0  0  0  0  0
    6.1307   -0.2678    5.2532 H   0  0  0  0  0  0  0  0  0  0  0  0
    2.8189    1.6119    2.8585 H   0  0  0  0  0  0  0  0  0  0  0  0
   -2.7120    1.7232    2.7155 H   0  0  0  0  0  0  0  0  0  0  0  0
   -7.5000   -4.5000    0.0000 B   0  0  0  0  0  0  0  0  0  0  0  0
   -4.5000   -4.5000    0.0000 B   0  0  0  0  0  0  0  0  0  0  0  0
   -1.5000   -4.5000    0.0000 B   0  0  0  0  0  0  0  0  0  0  0  0
    1.5000   -4.5000    0.0000 B   0  0  0  0  0  0  0  0  0  0  0  0
    4.5000   -4.5000    0.0000 B   0  0  0  0  0  0  0  0  0  0  0  0
    7.5000   -4.5000    0.0000 B   0  0  0  0  0  0  0  0  0  0  0  0
   -7.5000   -3.0000    0.0000 B   0  0  0  0  0  0  0  0  0  0  0  0
   -4.5000   -3.0000    0.0000 B   0  0  0  0  0  0  0  0  0  0  0  0
   -1.5000   -3.0000    0.0000 B   0  0  0  0  0  0  0  0  0  0  0  0
    1.5000   -3.0000    0.0000 B   0  0  0  0  0  0  0  0  0  0  0  0
    4.5000   -3.0000    0.0000 B   0  0  0  0  0  0  0  0  0  0  0  0
    7.5000   -3.0000    0.0000 B   0  0  0  0  0  0  0  0  0  0  0  0
   -7.5000   -1.5000    0.0000 B   0  0  0  0  0  0  0  0  0  0  0  0
   -4.5000   -1.5000    0.0000 B   0  0  0  0  0  0  0  0  0  0  0  0
   -1.5000   -1.5000    0.0000 B   0  0  0  0  0  0  0  0  0  0  0  0
    1.5000   -1.5000    0.0000 B   0  0  0  0  0  0  0  0  0  0  0  0
    4.5000   -1.5000    0.0000 B   0  0  0  0  0  0  0  0  0  0  0  0
    7.5000   -1.5000    0.0000 B   0  0  0  0  0  0  0  0  0  0  0  0
   -7.5000    0.0000    0.0000 B   0  0  0  0  0  0  0  0  0  0  0  0
   -4.5000    0.0000    0.0000 B   0  0  0  0  0  0  0  0  0  0  0  0
   -1.5000    0.0000    0.0000 B   0  0  0  0  0  0  0  0  0  0  0  0
    1.5000    0.0000    0.0000 B   0  0  0  0  0  0  0  0  0  0  0  0
    4.5000    0.0000    0.0000 B   0  0  0  0  0  0  0  0  0  0  0  0
    7.5000    0.0000    0.0000 B   0  0  0  0  0  0  0  0  0  0  0  0
   -7.5000    1.5000    0.0000 B   0  0  0  0  0  0  0  0  0  0  0  0
   -4.5000    1.5000    0.0000 B   0  0  0  0  0  0  0  0  0  0  0  0
   -1.5000    1.5000    0.0000 B   0  0  0  0  0  0  0  0  0  0  0  0
    1.5000    1.5000    0.0000 B   0  0  0  0  0  0  0  0  0  0  0  0
    4.5000    1.5000    0.0000 B   0  0  0  0  0  0  0  0  0  0  0  0
    7.5000    1.5000    0.0000 B   0  0  0  0  0  0  0  0  0  0  0  0
   -7.5000    3.0000    0.0000 B   0  0  0  0  0  0  0  0  0  0  0  0
   -4.5000    3.0000    0.0000 B   0  0  0  0  0  0  0  0  0  0  0  0
   -1.5000    3.0000    0.0000 B   0  0  0  0  0  0  0  0  0  0  0  0
    1.5000    3.0000    0.0000 B   0  0  0  0  0  0  0  0  0  0  0  0
    4.5000    3.0000    0.0000 B   0  0  0  0  0  0  0  0  0  0  0  0
    7.5000    3.0000    0.0000 B   0  0  0  0  0  0  0  0  0  0  0  0
   -7.5000    4.5000    0.0000 B   0  0  0  0  0  0  0  0  0  0  0  0
   -4.5000    4.5000    0.0000 B   0  0  0  0  0  0  0  0  0  0  0  0
   -1.5000    4.5000    0.0000 B   0  0  0  0  0  0  0  0  0  0  0  0
    1.5000    4.5000    0.0000 B   0  0  0  0  0  0  0  0  0  0  0  0
    4.5000    4.5000    0.0000 B   0  0  0  0  0  0  0  0  0  0  0  0
    7.5000    4.5000    0.0000 B   0  0  0  0  0  0  0  0  0  0  0  0
   -6.0000   -3.7500    0.0000 B   0  0  0  0  0  0  0  0  0  0  0  0
   -3.0000   -3.7500    0.0000 B   0  0  0  0  0  0  0  0  0  0  0  0
    0.0000   -3.7500    0.0000 B   0  0  0  0  0  0  0  0  0  0  0  0
    3.0000   -3.7500    0.0000 B   0  0  0  0  0  0  0  0  0  0  0  0
    6.0000   -3.7500    0.0000 B   0  0  0  0  0  0  0  0  0  0  0  0
   -6.0000    3.7500    0.0000 B   0  0  0  0  0  0  0  0  0  0  0  0
   -3.0000    3.7500    0.0000 B   0  0  0  0  0  0  0  0  0  0  0  0
    0.0000    3.7500    0.0000 B   0  0  0  0  0  0  0  0  0  0  0  0
    3.0000    3.7500    0.0000 B   0  0  0  0  0  0  0  0  0  0  0  0
    6.0000    3.7500    0.0000 B   0  0  0  0  0  0  0  0  0  0  0  0
   -6.0000    0.0000    0.0000 B   0  0  0  0  0  0  0  0  0  0  0  0
   -8.6000   -4.5000    0.0000 H   0  0  0  0  0  0  0  0  0  0  0  0
   -8.6000   -1.5000    0.0000 H   0  0  0  0  0  0  0  0  0  0  0  0
   -8.6000    1.5000    0.0000 H   0  0  0  0  0  0  0  0  0  0  0  0
   -8.6000    4.5000    0.0000 H   0  0  0  0  0  0  0  0  0  0  0  0
    8.6000   -4.5000    0.0000 H   0  0  0  0  0  0  0  0  0  0  0  0
    8.6000   -1.5000    0.0000 H   0  0  0  0  0  0  0  0  0  0  0  0
    8.6000    1.5000    0.0000 H   0  0  0  0  0  0  0  0  0  0  0  0
  1  2  1  0  0  0  0
  2  3  1  0  0  0  0
  2  4  1  0  0  0  0
  4  5  4  0  0  0  0
  5  6  4  0  0  0  0
  6  7  4  0  0  0  0
  7  8  4  0  0  0  0
  8  9  4  0  0  0  0
  9 10  4  0  0  0  0
 10 11  4  0  0  0  0
 11 12  4  0  0  0  0
 12 13  1  0  0  0  0
 13 14  1  0  0  0  0
 13 15  1  0  0  0  0
 12 16  4  0  0  0  0
  9 17  4  0  0  0  0
 16 17  4  0  0  0  0
 17 18  1  0  0  0  0
  7 19  4  0  0  0  0
 18 19  1  0  0  0  0
  4 20  4  0  0  0  0
 19 20  4  0  0  0  0
  1 21  1  0  0  0  0
  1 22  1  0  0  0  0
  1 23  1  0  0  0  0
  3 24  1  0  0  0  0
  3 25  1  0  0  0  0
  3 26  1  0  0  0  0
  5 27  1  0  0  0  0
  6 28  1  0  0  0  0
 10 29  1  0  0  0  0
 11 30  1  0  0  0  0
 14 31  1  0  0  0  0
 14 32  1  0  0  0  0
 14 33  1  0  0  0  0
 15 34  1  0  0  0  0
 15 35  1  0  0  0  0
 15 36  1  0  0  0  0
 16 37  1  0  0  0  0
 20 38  1  0  0  0  0
 39 45  1  0  0  0  0
 40 46  1  0  0  0  0
 41 47  1  0  0  0  0
 42 48  1  0  0  0  0
 43 49  1  0  0  0  0
 44 50  1  0  0  0  0
 45 51  1  0  0  0  0
 46 52  1  0  0  0  0
 47 53  1  0  0  0  0
 48 54  1  0  0  0  0
 49 55  1  0  0  0  0
 50 56  1  0  0  0  0
 51 57  1  0  0  0  0
 52 58  2  0  0  0  0
 53 59  2  0  0  0  0
 54 60  2  0  0  0  0
 55 61  2  0  0  0  0
 56 62  1  0  0  0  0
 57 63  1  0  0  0  0
 58 64  1  0  0  0  0
 59 65  2  0  0  0  0
 60 66  2  0  0  0  0
 61 67  2  0  0  0  0
 62 68  2  0  0  0  0
 63 69  1  0  0  0  0
 64 70  1  0  0  0  0
 65 71  1  0  0  0  0
 66 72  1  0  0  0  0
 67 73  1  0  0  0  0
 68 74  1  0  0  0  0
 69 75  1  0  0  0  0
 70 76  1  0  0  0  0
 71 77  1  0  0  0  0
 72 78  1  0  0  0  0
 73 79  1  0  0  0  0
 74 80  2  0  0  0  0
 39 81  1  0  0  0  0
 40 81  1  0  0  0  0
 45 81  1  0  0  0  0
 46 81  1  0  0  0  0
 40 82  1  0  0  0  0
 41 82  1  0  0  0  0
 46 82  1  0  0  0  0
 47 82  1  0  0  0  0
 41 83  1  0  0  0  0
 42 83  1  0  0  0  0
 47 83  1  0  0  0  0
 48 83  1  0  0  0  0
 42 84  1  0  0  0  0
 43 84  1  0  0  0  0
 48 84  1  0  0  0  0
 49 84  1  0  0  0  0
 43 85  1  0  0  0  0
 44 85  1  0  0  0  0
 49 85  1  0  0  0  0
 50 85  1  0  0  0  0
 69 86  1  0  0  0  0
 70 86  1  0  0  0  0
 75 86  1  0  0  0  0
 76 86  1  0  0  0  0
 70 87  1  0  0  0  0
 71 87  1  0  0  0  0
 76 87  1  0  0  0  0
 77 87  1  0  0  0  0
 71 88  1  0  0  0  0
 72 88  1  0  0  0  0
 77 88  1  0  0  0  0
 78 88  1  0  0  0  0
 72 89  1  0  0  0  0
 73 89  1  0  0  0  0
 78 89  1  0  0  0  0
 79 89  1  0  0  0  0
 73 90  1  0  0  0  0
 74 90  1  0  0  0  0
 79 90  1  0  0  0  0
 80 90  1  0  0  0  0
 51 91  1  0  0  0  0
 52 91  1  0  0  0  0
 57 91  1  0  0  0  0
 58 91  1  0  0  0  0
 63 91  1  0  0  0  0
 64 91  1  0  0  0  0
 39 92  1  0  0  0  0
 51 93  1  0  0  0  0
 63 94  1  0  0  0  0
 75 95  1  0  0  0  0
 44 96  1  0  0  0  0
 56 97  1  0  0  0  0
 68 98  1  0  0  0  0
M  END
