 xtb: 6.7.1pre (5071a88)
          09012616343D

 98140  0     0  0            999 V2000
   -6.2700   -0.3328    6.8740 C   0  0  0  0  0  0  0  0  0  0  0  0
   -5.1097    0.5563    6.8293 N   0  0  0  0  0  0  0  0  0  0  0  0
   -5.2387    1.7172    5.9489 C   0  0  0  0  0  0  0  0  0  0  0  0
   -3.8393    0.0300    7.0813 C   0  0  0  0  0  0  0  0  0  0  0  0
   -3.6535   -1.2210    7.6841 C   0  0  0  0  0  0  0  0  0  0  0  0
   -2.3754   -1.7430    7.9523 C   0  0  0  0  0  0  0  0  0  0  0  0
   -1.2176   -1.0567    7.6506 C   0  0  0  0  0  0  0  0  0  0  0  0
   -0.0533   -1.6636    7.9532 N   0  0  0  0  0  0  0  0  0  0  0  0
    1.1484   -1.1022    7.7163 C   0  0  0  0  0  0  0  0  0  0  0  0
    2.2607   -1.8368    8.0708 C   0  0  0  0  0  0  0  0  0  0  0  0
    3.5707   -1.3625    7.8789 C   0  0  0  0  0  0  0  0  0  0  0  0
    3.8369   -0.1044    7.3230 C   0  0  0  0  0  0  0  0  0  0  0  0
    5.1391    0.3608    7.1172 N   0  0  0  0  0  0  0  0  0  0  0  0
    5.3506    1.7748    6.8087 C   0  0  0  0  0  0  0  0  0  0  0  0
    6.2494   -0.3097    7.7928 C   0  0  0  0  0  0  0  0  0  0  0  0
    2.7060    0.6352    6.9471 C   0  0  0  0  0  0  0  0  0  0  0  0
    1.3930    0.1568    7.1409 C   0  0  0  0  0  0  0  0  0  0  0  0
    0.0389    1.2135    6.6246 S   0  0  0  0  0  0  0  0  0  0  0  0
   -1.3812    0.2085    7.0604 C   0  0  0  0  0  0  0  0  0  0  0  0
   -2.6621    0.7348    6.7903 C   0  0  0  0  0  0  0  0  0  0  0  0
   -6.1758   -1.1397    6.1388 H   0  0  0  0  0  0  0  0  0  0  0  0
   -6.4048   -0.7588    7.8739 H   0  0  0  0  0  0  0  0  0  0  0  0
   -7.1961    0.2096    6.6523 H   0  0  0  0  0  0  0  0  0  0  0  0
   -6.2866    2.0178    5.8375 H   0  0  0  0  0  0  0  0  0  0  0  0
   -4.7199    2.5883    6.3632 H   0  0  0  0  0  0  0  0  0  0  0  0
   -4.8499    1.4973    4.9485 H   0  0  0  0  0  0  0  0  0  0  0  0
   -4.4994   -1.8379    7.9720 H   0  0  0  0  0  0  0  0  0  0  0  0
   -2.2985   -2.7234    8.4183 H   0  0  0  0  0  0  0  0  0  0  0  0
    2.1208   -2.8217    8.5122 H   0  0  0  0  0  0  0  0  0  0  0  0
    4.3756   -2.0254    8.1820 H   0  0  0  0  0  0  0  0  0  0  0  0
    4.8686    2.0508    5.8647 H   0  0  0  0  0  0  0  0  0  0  0  0
    6.4153    1.9988    6.6779 H   0  0  0  0  0  0  0  0  0  0  0  0
    4.9752    2.4139    7.6155 H   0  0  0  0  0  0  0  0  0  0  0  0
    6.3371   -1.3531    7.4714 H   0  0  0  0  0  0  0  0  0  0  0  0
    7.2079    0.1610    7.5466 H   0  0  0  0  0  0  0  0  0  0  0  0
    6.1307   -0.2678    8.8812 H   0  0  0  0  0  0  0  0  0  0  0  0
    2.8189    1.6119    6.4865 H   0  0  0  0  0  0  0  0  0  0  0  0
   -2.7120    1.7232    6.3435 H   0  0  0  0  0  0  0  0  0  0  0  0
   -6.9256   -4.6511    0.2587 B   0  0  0  0  0  0  0  0  0  0  0  0
   -5.1098   -2.2493    0.3222 B   0  0  0  0  0  0  0  0  0  0  0  0
   -3.5915   -2.1814    0.2128 B   0  0  0  0  0  0  0  0  0  0  0  0
    0.9993   -2.8754    0.0638 B   0  0  0  0  0  0  0  0  0  0  0  0
    2.4759   -3.0122   -0.2709 B   0  0  0  0  0  0  0  0  0  0  0  0
    5.2994   -3.8314   -0.6672 B   0  0  0  0  0  0  0  0  0  0  0  0
    6.3183   -4.8359   -1.1558 B   0  0  0  0  0  0  0  0  0  0  0  0
   -6.4348   -3.1583    0.2864 B   0  0  0  0  0  0  0  0  0  0  0  0
   -6.7520   -1.6338    0.3164 B   0  0  0  0  0  0  0  0  0  0  0  0
   -2.0526   -2.3173    0.3349 B   0  0  0  0  0  0  0  0  0  0  0  0
   -0.4841   -2.4619    0.2574 B   0  0  0  0  0  0  0  0  0  0  0  0
    4.0184   -2.9011   -0.2872 B   0  0  0  0  0  0  0  0  0  0  0  0
    5.7532   -2.2815   -0.3028 B   0  0  0  0  0  0  0  0  0  0  0  0
    6.8301   -3.2288   -1.0929 B   0  0  0  0  0  0  0  0  0  0  0  0
   -7.6564   -0.2550    0.3431 B   0  0  0  0  0  0  0  0  0  0  0  0
   -6.0374   -0.1395    0.1913 B   0  0  0  0  0  0  0  0  0  0  0  0
   -4.4316   -0.5357    0.2239 B   0  0  0  0  0  0  0  0  0  0  0  0
   -2.7379   -0.6604    0.3290 B   0  0  0  0  0  0  0  0  0  0  0  0
   -1.0518   -0.9157    0.6419 B   0  0  0  0  0  0  0  0  0  0  0  0
    0.5171   -1.1722    0.7257 B   0  0  0  0  0  0  0  0  0  0  0  0
    3.1231   -1.4831   -0.0635 B   0  0  0  0  0  0  0  0  0  0  0  0
    4.7001   -1.1340    0.3402 B   0  0  0  0  0  0  0  0  0  0  0  0
    6.2667   -0.7872    0.2517 B   0  0  0  0  0  0  0  0  0  0  0  0
    7.6720   -0.3517    1.0327 B   0  0  0  0  0  0  0  0  0  0  0  0
   -6.9181    1.2121    0.1915 B   0  0  0  0  0  0  0  0  0  0  0  0
   -3.4184    0.7801    0.0809 B   0  0  0  0  0  0  0  0  0  0  0  0
   -1.6542    0.5326    0.1239 B   0  0  0  0  0  0  0  0  0  0  0  0
    1.8622   -0.4037    0.3246 B   0  0  0  0  0  0  0  0  0  0  0  0
    3.5847   -0.1504    0.7852 B   0  0  0  0  0  0  0  0  0  0  0  0
    6.9910    0.6111   -0.1068 B   0  0  0  0  0  0  0  0  0  0  0  0
    8.3074    1.0629    0.6316 B   0  0  0  0  0  0  0  0  0  0  0  0
   -7.6194    2.8040    0.2986 B   0  0  0  0  0  0  0  0  0  0  0  0
   -6.1238    2.5185   -0.1765 B   0  0  0  0  0  0  0  0  0  0  0  0
   -3.5886    2.3277   -0.2368 B   0  0  0  0  0  0  0  0  0  0  0  0
   -0.9061    1.8195   -0.4198 B   0  0  0  0  0  0  0  0  0  0  0  0
    1.6234    1.0199   -0.4108 B   0  0  0  0  0  0  0  0  0  0  0  0
    3.0108    1.3090    0.5297 B   0  0  0  0  0  0  0  0  0  0  0  0
    6.3729    1.8582   -0.9160 B   0  0  0  0  0  0  0  0  0  0  0  0
   -6.5277    4.0456   -0.1608 B   0  0  0  0  0  0  0  0  0  0  0  0
   -4.8736    3.4948   -0.3884 B   0  0  0  0  0  0  0  0  0  0  0  0
   -3.4155    3.8801   -0.6064 B   0  0  0  0  0  0  0  0  0  0  0  0
   -2.0235    3.2206   -0.6767 B   0  0  0  0  0  0  0  0  0  0  0  0
   -0.4974    3.2796   -0.8970 B   0  0  0  0  0  0  0  0  0  0  0  0
    0.7107    2.3324   -0.7457 B   0  0  0  0  0  0  0  0  0  0  0  0
    2.3353    2.4781   -0.4754 B   0  0  0  0  0  0  0  0  0  0  0  0
    3.8161    2.6195   -0.0941 B   0  0  0  0  0  0  0  0  0  0  0  0
    5.3698    2.8646   -0.1489 B   0  0  0  0  0  0  0  0  0  0  0  0
    6.0551    4.0800    0.6312 B   0  0  0  0  0  0  0  0  0  0  0  0
    6.2041    5.1477    0.1463 H   0  0  0  0  0  0  0  0  0  0  0  0
    8.2184   -1.1210    1.7268 H   0  0  0  0  0  0  0  0  0  0  0  0
    6.6224    1.9818   -2.0674 H   0  0  0  0  0  0  0  0  0  0  0  0
   -7.0900   -5.2506   -0.7538 H   0  0  0  0  0  0  0  0  0  0  0  0
   -6.7912    5.1815   -0.2852 H   0  0  0  0  0  0  0  0  0  0  0  0
    9.1569    1.8466    0.7900 H   0  0  0  0  0  0  0  0  0  0  0  0
   -8.8277   -0.3758    0.3286 H   0  0  0  0  0  0  0  0  0  0  0  0
    6.7839   -5.8690   -1.4465 H   0  0  0  0  0  0  0  0  0  0  0  0
   -8.7247    3.0012    0.6388 H   0  0  0  0  0  0  0  0  0  0  0  0
    7.8918   -2.8835   -1.4737 H   0  0  0  0  0  0  0  0  0  0  0  0
    6.4282    3.9996    1.7485 H   0  0  0  0  0  0  0  0  0  0  0  0
   -7.2249   -5.2823    1.2187 H   0  0  0  0  0  0  0  0  0  0  0  0
  1  2  1  0  0  0  0
  2  3  1  0  0  0  0
  2  4  1  0  0  0  0
  4  5  4  0  0  0  0
  5  6  4  0  0  0  0
  6  7  4  0  0  0  0
  7  8  4  0  0  0  0
  8  9  4  0  0  0  0
  9 10  4  0  0  0  0
 10 11  4  0  0  0  0
 11 12  4  0  0  0  0
 12 13  1  0  0  0  0
 13 14  1  0  0  0  0
 13 15  1  0  0  0  0
 12 16  4  0  0  0  0
  9 17  4  0  0  0  0
 16 17  4  0  0  0  0
 17 18  1  0  0  0  0
  7 19  4  0  0  0  0
 18 19  1  0  0  0  0
  4 20  4  0  0  0  0
 19 20  4  0  0  0  0
  1 21  1  0  0  0  0
  1 22  1  0  0  0  0
  1 23  1  0  0  0  0
  3 24  1  0  0  0  0
  3 25  1  0  0  0  0
  3 26  1  0  0  0  0
  5 27  1  0  0  0  0
  6 28  1  0  0  0  0
 10 29  1  0  0  0  0
 11 30  1  0  0  0  0
 14 31  1  0  0  0  0
 14 32  1  0  0  0  0
 14 33  1  0  0  0  0
 15 34  1  0  0  0  0
 15 35  1  0  0  0  0
 15 36  1  0  0  0  0
 16 37  1  0  0  0  0
 20 38  1  0  0  0  0
 40 41  1  0  0  0  0
 42 43  2  0  0  0  0
 44 45  1  0  0  0  0
 39 46  1  0  0  0  0
 40 46  1  0  0  0  0
 40 47  1  0  0  0  0
 46 47  1  0  0  0  0
 41 48  1  0  0  0  0
 42 49  1  0  0  0  0
 48 49  1  0  0  0  0
 43 50  1  0  0  0  0
 44 50  1  0  0  0  0
 44 51  1  0  0  0  0
 50 51  1  0  0  0  0
 44 52  1  0  0  0  0
 45 52  1  0  0  0  0
 51 52  1  0  0  0  0
 47 53  1  0  0  0  0
 47 54  1  0  0  0  0
 53 54  1  0  0  0  0
 40 55  1  0  0  0  0
 41 55  1  0  0  0  0
 54 55  1  0  0  0  0
 41 56  1  0  0  0  0
 48 56  1  0  0  0  0
 55 56  1  0  0  0  0
 48 57  1  0  0  0  0
 49 57  1  0  0  0  0
 56 57  1  0  0  0  0
 42 58  1  0  0  0  0
 49 58  1  0  0  0  0
 57 58  1  0  0  0  0
 43 59  1  0  0  0  0
 50 59  1  0  0  0  0
 50 60  1  0  0  0  0
 51 60  1  0  0  0  0
 59 60  1  0  0  0  0
 51 61  1  0  0  0  0
 60 61  1  0  0  0  0
 61 62  1  0  0  0  0
 53 63  1  0  0  0  0
 54 63  1  0  0  0  0
 55 64  1  0  0  0  0
 56 64  1  0  0  0  0
 56 65  1  0  0  0  0
 57 65  1  0  0  0  0
 64 65  1  0  0  0  0
 58 66  1  0  0  0  0
 59 66  1  0  0  0  0
 59 67  1  0  0  0  0
 60 67  1  0  0  0  0
 66 67  1  0  0  0  0
 61 68  1  0  0  0  0
 62 68  1  0  0  0  0
 62 69  1  0  0  0  0
 68 69  1  0  0  0  0
 63 70  1  0  0  0  0
 63 71  1  0  0  0  0
 70 71  1  0  0  0  0
 64 72  1  0  0  0  0
 65 73  1  0  0  0  0
 66 74  1  0  0  0  0
 67 75  1  0  0  0  0
 74 75  1  0  0  0  0
 68 76  1  0  0  0  0
 70 77  1  0  0  0  0
 71 77  1  0  0  0  0
 71 78  1  0  0  0  0
 72 78  1  0  0  0  0
 77 78  1  0  0  0  0
 72 79  1  0  0  0  0
 78 79  1  0  0  0  0
 72 80  1  0  0  0  0
 73 80  1  0  0  0  0
 79 80  1  0  0  0  0
 73 81  1  0  0  0  0
 80 81  1  0  0  0  0
 73 82  1  0  0  0  0
 74 82  1  0  0  0  0
 81 82  1  0  0  0  0
 74 83  1  0  0  0  0
 75 83  1  0  0  0  0
 82 83  1  0  0  0  0
 75 84  1  0  0  0  0
 83 84  1  0  0  0  0
 76 85  1  0  0  0  0
 84 85  1  0  0  0  0
 85 86  1  0  0  0  0
 86 87  1  0  0  0  0
 62 88  1  0  0  0  0
 76 89  1  0  0  0  0
 39 90  1  0  0  0  0
 77 91  1  0  0  0  0
 69 92  1  0  0  0  0
 53 93  1  0  0  0  0
 45 94  1  0  0  0  0
 70 95  1  0  0  0  0
 52 96  1  0  0  0  0
 86 97  1  0  0  0  0
 39 98  1  0  0  0  0
M  CHG  1   1   1
M  END
