 xtb: 6.7.1pre (5071a88)
          09012620283D

 93130  0     0  0            999 V2000
   -6.2700   -0.3328    8.1012 C   0  0  0  0  0  0  0  0  0  0  0  0
   -5.1097    0.5563    8.0565 N   0  0  0  0  0  0  0  0  0  0  0  0
   -5.2387    1.7172    7.1761 C   0  0  0  0  0  0  0  0  0  0  0  0
   -3.8393    0.0300    8.3085 C   0  0  0  0  0  0  0  0  0  0  0  0
   -3.6535   -1.2210    8.9113 C   0  0  0  0  0  0  0  0  0  0  0  0
   -2.3754   -1.7430    9.1795 C   0  0  0  0  0  0  0  0  0  0  0  0
   -1.2176   -1.0567    8.8778 C   0  0  0  0  0  0  0  0  0  0  0  0
   -0.0533   -1.6636    9.1804 N   0  0  0  0  0  0  0  0  0  0  0  0
    1.1484   -1.1022    8.9435 C   0  0  0  0  0  0  0  0  0  0  0  0
    2.2607   -1.8368    9.2980 C   0  0  0  0  0  0  0  0  0  0  0  0
    3.5707   -1.3625    9.1062 C   0  0  0  0  0  0  0  0  0  0  0  0
    3.8369   -0.1044    8.5502 C   0  0  0  0  0  0  0  0  0  0  0  0
    5.1391    0.3608    8.3444 N   0  0  0  0  0  0  0  0  0  0  0  0
    5.3506    1.7748    8.0359 C   0  0  0  0  0  0  0  0  0  0  0  0
    6.2494   -0.3097    9.0200 C   0  0  0  0  0  0  0  0  0  0  0  0
    2.7060    0.6352    8.1743 C   0  0  0  0  0  0  0  0  0  0  0  0
    1.3930    0.1568    8.3681 C   0  0  0  0  0  0  0  0  0  0  0  0
    0.0389    1.2135    7.8519 S   0  0  0  0  0  0  0  0  0  0  0  0
   -1.3812    0.2085    8.2876 C   0  0  0  0  0  0  0  0  0  0  0  0
   -2.6621    0.7348    8.0175 C   0  0  0  0  0  0  0  0  0  0  0  0
   -6.1758   -1.1397    7.3661 H   0  0  0  0  0  0  0  0  0  0  0  0
   -6.4048   -0.7588    9.1011 H   0  0  0  0  0  0  0  0  0  0  0  0
   -7.1961    0.2096    7.8795 H   0  0  0  0  0  0  0  0  0  0  0  0
   -6.2866    2.0178    7.0647 H   0  0  0  0  0  0  0  0  0  0  0  0
   -4.7199    2.5883    7.5904 H   0  0  0  0  0  0  0  0  0  0  0  0
   -4.8499    1.4973    6.1757 H   0  0  0  0  0  0  0  0  0  0  0  0
   -4.4994   -1.8379    9.1992 H   0  0  0  0  0  0  0  0  0  0  0  0
   -2.2985   -2.7234    9.6456 H   0  0  0  0  0  0  0  0  0  0  0  0
    2.1208   -2.8217    9.7394 H   0  0  0  0  0  0  0  0  0  0  0  0
    4.3756   -2.0254    9.4092 H   0  0  0  0  0  0  0  0  0  0  0  0
    4.8686    2.0508    7.0919 H   0  0  0  0  0  0  0  0  0  0  0  0
    6.4153    1.9988    7.9051 H   0  0  0  0  0  0  0  0  0  0  0  0
    4.9752    2.4139    8.8427 H   0  0  0  0  0  0  0  0  0  0  0  0
    6.3371   -1.3531    8.6986 H   0  0  0  0  0  0  0  0  0  0  0  0
    7.2079    0.1610    8.7738 H   0  0  0  0  0  0  0  0  0  0  0  0
    6.1307   -0.2678   10.1084 H   0  0  0  0  0  0  0  0  0  0  0  0
    2.8189    1.6119    7.7137 H   0  0  0  0  0  0  0  0  0  0  0  0
   -2.7120    1.7232    7.5707 H   0  0  0  0  0  0  0  0  0  0  0  0
   -4.7806   -2.6045    0.3173 B   0  0  0  0  0  0  0  0  0  0  0  0
   -4.5695   -1.3567   -0.6480 B   0  0  0  0  0  0  0  0  0  0  0  0
   -4.4639   -0.2474   -1.8829 B   0  0  0  0  0  0  0  0  0  0  0  0
   -3.3965   -2.6620   -0.5028 B   0  0  0  0  0  0  0  0  0  0  0  0
   -3.0380    0.1776   -1.4048 B   0  0  0  0  0  0  0  0  0  0  0  0
   -4.3909    0.3426   -0.1924 B   0  0  0  0  0  0  0  0  0  0  0  0
   -5.0310    1.4031    0.8192 B   0  0  0  0  0  0  0  0  0  0  0  0
   -4.6201    2.9864    0.9976 B   0  0  0  0  0  0  0  0  0  0  0  0
   -2.8089    0.5128    0.1995 B   0  0  0  0  0  0  0  0  0  0  0  0
   -3.2186    3.2275    1.7932 B   0  0  0  0  0  0  0  0  0  0  0  0
   -2.1611   -3.7758   -0.5843 B   0  0  0  0  0  0  0  0  0  0  0  0
   -1.8769   -2.2481   -0.9334 B   0  0  0  0  0  0  0  0  0  0  0  0
   -1.6972   -0.6133   -0.8358 B   0  0  0  0  0  0  0  0  0  0  0  0
   -0.5844   -3.2190   -0.8350 B   0  0  0  0  0  0  0  0  0  0  0  0
   -0.2198   -0.1484   -0.3118 B   0  0  0  0  0  0  0  0  0  0  0  0
   -1.3950    0.0358    0.8521 B   0  0  0  0  0  0  0  0  0  0  0  0
   -1.7757    1.6621    0.7592 B   0  0  0  0  0  0  0  0  0  0  0  0
   -1.8975    3.2370    0.8826 B   0  0  0  0  0  0  0  0  0  0  0  0
   -0.2153    1.0372    1.0697 B   0  0  0  0  0  0  0  0  0  0  0  0
   -0.7521    4.3480    0.5584 B   0  0  0  0  0  0  0  0  0  0  0  0
    0.8265   -4.1129   -0.7400 B   0  0  0  0  0  0  0  0  0  0  0  0
    0.9251   -2.5054   -0.7497 B   0  0  0  0  0  0  0  0  0  0  0  0
    1.2144   -0.9490   -0.5870 B   0  0  0  0  0  0  0  0  0  0  0  0
    2.2007   -3.4026   -0.1682 B   0  0  0  0  0  0  0  0  0  0  0  0
    2.6220   -0.1957   -0.2930 B   0  0  0  0  0  0  0  0  0  0  0  0
    1.2341    0.5516    0.1426 B   0  0  0  0  0  0  0  0  0  0  0  0
    1.1248    2.0009    1.0430 B   0  0  0  0  0  0  0  0  0  0  0  0
    0.5366    3.4372    0.6180 B   0  0  0  0  0  0  0  0  0  0  0  0
    2.4580    1.6726    0.0875 B   0  0  0  0  0  0  0  0  0  0  0  0
    1.2136    3.0171   -0.8530 B   0  0  0  0  0  0  0  0  0  0  0  0
    3.2202   -3.8508    1.1044 B   0  0  0  0  0  0  0  0  0  0  0  0
    3.6240   -2.6535    0.0637 B   0  0  0  0  0  0  0  0  0  0  0  0
    4.0250   -1.1219   -0.2366 B   0  0  0  0  0  0  0  0  0  0  0  0
    4.4174   -2.8355    1.4203 B   0  0  0  0  0  0  0  0  0  0  0  0
    5.3636   -0.2419   -0.6898 B   0  0  0  0  0  0  0  0  0  0  0  0
    4.1041    0.5310   -0.0135 B   0  0  0  0  0  0  0  0  0  0  0  0
    4.0181    2.3218   -0.0338 B   0  0  0  0  0  0  0  0  0  0  0  0
    2.8218    3.0968   -0.9129 B   0  0  0  0  0  0  0  0  0  0  0  0
    5.4220    1.4583   -0.1853 B   0  0  0  0  0  0  0  0  0  0  0  0
    4.2961    3.5501   -1.0140 B   0  0  0  0  0  0  0  0  0  0  0  0
   -5.1687   -3.0949    1.3107 H   0  0  0  0  0  0  0  0  0  0  0  0
   -5.7161   -2.0764   -0.3935 H   0  0  0  0  0  0  0  0  0  0  0  0
   -5.2640   -0.1207   -2.7417 H   0  0  0  0  0  0  0  0  0  0  0  0
   -5.7711    1.0074    1.6646 H   0  0  0  0  0  0  0  0  0  0  0  0
   -5.3645    3.8431    0.6720 H   0  0  0  0  0  0  0  0  0  0  0  0
   -3.2343    3.2250    2.9757 H   0  0  0  0  0  0  0  0  0  0  0  0
   -2.3593   -4.9262   -0.4732 H   0  0  0  0  0  0  0  0  0  0  0  0
   -0.8965    5.4755    0.2443 H   0  0  0  0  0  0  0  0  0  0  0  0
    0.8223   -5.2498   -1.0233 H   0  0  0  0  0  0  0  0  0  0  0  0
    0.5537    2.6943   -1.7837 H   0  0  0  0  0  0  0  0  0  0  0  0
    2.9703   -4.8176    1.7172 H   0  0  0  0  0  0  0  0  0  0  0  0
    5.2631   -2.5125    2.1565 H   0  0  0  0  0  0  0  0  0  0  0  0
    6.3848   -0.6467   -1.0956 H   0  0  0  0  0  0  0  0  0  0  0  0
    6.5032    1.8382    0.0650 H   0  0  0  0  0  0  0  0  0  0  0  0
    5.1389    4.2524   -1.4154 H   0  0  0  0  0  0  0  0  0  0  0  0
  1  2  1  0  0  0  0
  2  3  1  0  0  0  0
  2  4  1  0  0  0  0
  4  5  4  0  0  0  0
  5  6  2  0  0  0  0
  6  7  4  0  0  0  0
  7  8  4  0  0  0  0
  8  9  4  0  0  0  0
  9 10  4  0  0  0  0
 10 11  2  0  0  0  0
 11 12  4  0  0  0  0
 12 13  1  0  0  0  0
 13 14  1  0  0  0  0
 13 15  1  0  0  0  0
 12 16  4  0  0  0  0
  9 17  4  0  0  0  0
 16 17  4  0  0  0  0
 17 18  1  0  0  0  0
  7 19  4  0  0  0  0
 18 19  1  0  0  0  0
  4 20  4  0  0  0  0
 19 20  4  0  0  0  0
  1 21  1  0  0  0  0
  1 22  1  0  0  0  0
  1 23  1  0  0  0  0
  3 24  1  0  0  0  0
  3 25  1  0  0  0  0
  3 26  1  0  0  0  0
  5 27  1  0  0  0  0
  6 28  1  0  0  0  0
 10 29  1  0  0  0  0
 11 30  1  0  0  0  0
 14 31  1  0  0  0  0
 14 32  1  0  0  0  0
 14 33  1  0  0  0  0
 15 34  1  0  0  0  0
 15 35  1  0  0  0  0
 15 36  1  0  0  0  0
 16 37  1  0  0  0  0
 20 38  1  0  0  0  0
 39 40  1  0  0  0  0
 40 41  1  0  0  0  0
 39 42  1  0  0  0  0
 40 42  1  0  0  0  0
 41 43  1  0  0  0  0
 40 44  1  0  0  0  0
 41 44  1  0  0  0  0
 43 44  1  0  0  0  0
 44 45  1  0  0  0  0
 45 46  1  0  0  0  0
 43 47  1  0  0  0  0
 44 47  1  0  0  0  0
 46 48  1  0  0  0  0
 42 49  1  0  0  0  0
 42 50  1  0  0  0  0
 49 50  1  0  0  0  0
 43 51  1  0  0  0  0
 47 51  1  0  0  0  0
 50 51  1  0  0  0  0
 49 52  1  0  0  0  0
 50 52  1  0  0  0  0
 51 53  1  0  0  0  0
 47 54  1  0  0  0  0
 51 54  1  0  0  0  0
 53 54  1  0  0  0  0
 47 55  1  0  0  0  0
 54 55  1  0  0  0  0
 48 56  1  0  0  0  0
 55 56  1  0  0  0  0
 53 57  1  0  0  0  0
 54 57  1  0  0  0  0
 55 57  1  0  0  0  0
 56 58  1  0  0  0  0
 52 59  1  0  0  0  0
 52 60  1  0  0  0  0
 59 60  1  0  0  0  0
 53 61  1  0  0  0  0
 60 61  1  0  0  0  0
 59 62  1  0  0  0  0
 60 62  1  0  0  0  0
 61 63  1  0  0  0  0
 53 64  1  0  0  0  0
 57 64  1  0  0  0  0
 61 64  1  0  0  0  0
 63 64  1  0  0  0  0
 57 65  1  0  0  0  0
 64 65  1  0  0  0  0
 58 66  1  0  0  0  0
 65 66  1  0  0  0  0
 63 67  1  0  0  0  0
 64 67  1  0  0  0  0
 65 67  1  0  0  0  0
 66 68  1  0  0  0  0
 62 69  1  0  0  0  0
 62 70  1  0  0  0  0
 69 70  1  0  0  0  0
 63 71  1  0  0  0  0
 70 71  1  0  0  0  0
 69 72  1  0  0  0  0
 70 72  1  0  0  0  0
 71 73  1  0  0  0  0
 63 74  1  0  0  0  0
 71 74  1  0  0  0  0
 73 74  1  0  0  0  0
 67 75  1  0  0  0  0
 74 75  1  0  0  0  0
 67 76  1  0  0  0  0
 68 76  1  0  0  0  0
 75 76  1  0  0  0  0
 73 77  1  0  0  0  0
 74 77  1  0  0  0  0
 75 77  1  0  0  0  0
 75 78  1  0  0  0  0
 76 78  1  0  0  0  0
 39 79  1  0  0  0  0
 39 80  1  0  0  0  0
 40 80  1  0  0  0  0
 41 81  1  0  0  0  0
 45 82  1  0  0  0  0
 46 83  1  0  0  0  0
 48 84  1  0  0  0  0
 49 85  1  0  0  0  0
 58 86  1  0  0  0  0
 59 87  1  0  0  0  0
 68 88  1  0  0  0  0
 69 89  1  0  0  0  0
 72 90  1  0  0  0  0
 73 91  1  0  0  0  0
 77 92  1  0  0  0  0
 78 93  1  0  0  0  0
M  CHG  1   1   1
M  END
