 xtb: 6.7.1pre (5071a88)
          08312621153D

 98153  0     0  0            999 V2000
   -6.2700   -0.3328    5.1255 C   0  0  0  0  0  0  0  0  0  0  0  0
   -5.1097    0.5563    5.0809 N   0  0  0  0  0  0  0  0  0  0  0  0
   -5.2387    1.7172    4.2004 C   0  0  0  0  0  0  0  0  0  0  0  0
   -3.8393    0.0300    5.3329 C   0  0  0  0  0  0  0  0  0  0  0  0
   -3.6535   -1.2210    5.9356 C   0  0  0  0  0  0  0  0  0  0  0  0
   -2.3754   -1.7430    6.2038 C   0  0  0  0  0  0  0  0  0  0  0  0
   -1.2176   -1.0567    5.9021 C   0  0  0  0  0  0  0  0  0  0  0  0
   -0.0533   -1.6636    6.2047 N   0  0  0  0  0  0  0  0  0  0  0  0
    1.1484   -1.1022    5.9678 C   0  0  0  0  0  0  0  0  0  0  0  0
    2.2607   -1.8368    6.3223 C   0  0  0  0  0  0  0  0  0  0  0  0
    3.5707   -1.3625    6.1305 C   0  0  0  0  0  0  0  0  0  0  0  0
    3.8369   -0.1044    5.5746 C   0  0  0  0  0  0  0  0  0  0  0  0
    5.1391    0.3608    5.3688 N   0  0  0  0  0  0  0  0  0  0  0  0
    5.3506    1.7748    5.0602 C   0  0  0  0  0  0  0  0  0  0  0  0
    6.2494   -0.3097    6.0444 C   0  0  0  0  0  0  0  0  0  0  0  0
    2.7060    0.6352    5.1986 C   0  0  0  0  0  0  0  0  0  0  0  0
    1.3930    0.1568    5.3924 C   0  0  0  0  0  0  0  0  0  0  0  0
    0.0389    1.2135    4.8762 S   0  0  0  0  0  0  0  0  0  0  0  0
   -1.3812    0.2085    5.3119 C   0  0  0  0  0  0  0  0  0  0  0  0
   -2.6621    0.7348    5.0418 C   0  0  0  0  0  0  0  0  0  0  0  0
   -6.1758   -1.1397    4.3904 H   0  0  0  0  0  0  0  0  0  0  0  0
   -6.4048   -0.7588    6.1255 H   0  0  0  0  0  0  0  0  0  0  0  0
   -7.1961    0.2096    4.9039 H   0  0  0  0  0  0  0  0  0  0  0  0
   -6.2866    2.0178    4.0890 H   0  0  0  0  0  0  0  0  0  0  0  0
   -4.7199    2.5883    4.6147 H   0  0  0  0  0  0  0  0  0  0  0  0
   -4.8499    1.4973    3.2000 H   0  0  0  0  0  0  0  0  0  0  0  0
   -4.4994   -1.8379    6.2236 H   0  0  0  0  0  0  0  0  0  0  0  0
   -2.2985   -2.7234    6.6699 H   0  0  0  0  0  0  0  0  0  0  0  0
    2.1208   -2.8217    6.7637 H   0  0  0  0  0  0  0  0  0  0  0  0
    4.3756   -2.0254    6.4335 H   0  0  0  0  0  0  0  0  0  0  0  0
    4.8686    2.0508    4.1162 H   0  0  0  0  0  0  0  0  0  0  0  0
    6.4153    1.9988    4.9294 H   0  0  0  0  0  0  0  0  0  0  0  0
    4.9752    2.4139    5.8670 H   0  0  0  0  0  0  0  0  0  0  0  0
    6.3371   -1.3531    5.7229 H   0  0  0  0  0  0  0  0  0  0  0  0
    7.2079    0.1610    5.7982 H   0  0  0  0  0  0  0  0  0  0  0  0
    6.1307   -0.2678    7.1327 H   0  0  0  0  0  0  0  0  0  0  0  0
    2.8189    1.6119    4.7380 H   0  0  0  0  0  0  0  0  0  0  0  0
   -2.7120    1.7232    4.5950 H   0  0  0  0  0  0  0  0  0  0  0  0
   -6.3511   -2.8545   -0.3396 B   0  0  0  0  0  0  0  0  0  0  0  0
   -3.8632   -3.4276    0.8712 B   0  0  0  0  0  0  0  0  0  0  0  0
   -1.0552   -4.1651    1.9793 B   0  0  0  0  0  0  0  0  0  0  0  0
    1.6853   -4.2318    1.3549 B   0  0  0  0  0  0  0  0  0  0  0  0
    2.9703   -3.6923    0.6219 B   0  0  0  0  0  0  0  0  0  0  0  0
    5.9076   -3.8486   -0.3800 B   0  0  0  0  0  0  0  0  0  0  0  0
   -4.7612   -2.3307   -0.4078 B   0  0  0  0  0  0  0  0  0  0  0  0
   -2.6199   -2.2111    0.8442 B   0  0  0  0  0  0  0  0  0  0  0  0
   -1.2327   -2.3911    1.7792 B   0  0  0  0  0  0  0  0  0  0  0  0
    0.2814   -3.1446    1.2586 B   0  0  0  0  0  0  0  0  0  0  0  0
    3.1280   -2.1353    0.0337 B   0  0  0  0  0  0  0  0  0  0  0  0
    5.2824   -2.5807   -1.1427 B   0  0  0  0  0  0  0  0  0  0  0  0
   -4.3827   -1.0545   -1.3461 B   0  0  0  0  0  0  0  0  0  0  0  0
   -3.1924   -1.2685   -0.2398 B   0  0  0  0  0  0  0  0  0  0  0  0
   -0.7667   -0.9151    2.1471 B   0  0  0  0  0  0  0  0  0  0  0  0
    0.4341   -1.5098    0.8825 B   0  0  0  0  0  0  0  0  0  0  0  0
    4.2603   -1.2719   -0.6057 B   0  0  0  0  0  0  0  0  0  0  0  0
    6.8452   -2.4756   -0.8065 B   0  0  0  0  0  0  0  0  0  0  0  0
   -5.0072   -0.6437   -2.8496 B   0  0  0  0  0  0  0  0  0  0  0  0
   -3.1952    0.1543   -0.9257 B   0  0  0  0  0  0  0  0  0  0  0  0
   -0.9469    0.6233    2.2104 B   0  0  0  0  0  0  0  0  0  0  0  0
    0.0016   -0.0204    0.9084 B   0  0  0  0  0  0  0  0  0  0  0  0
    4.8754    0.2242   -0.5476 B   0  0  0  0  0  0  0  0  0  0  0  0
    5.8786   -1.0664   -1.1306 B   0  0  0  0  0  0  0  0  0  0  0  0
   -5.7672    0.8535   -2.9176 B   0  0  0  0  0  0  0  0  0  0  0  0
   -2.8971    1.6282   -0.7083 B   0  0  0  0  0  0  0  0  0  0  0  0
   -1.2399    2.1332    2.0889 B   0  0  0  0  0  0  0  0  0  0  0  0
    0.1883    1.5499    1.0540 B   0  0  0  0  0  0  0  0  0  0  0  0
    4.2581    1.5841    0.0647 B   0  0  0  0  0  0  0  0  0  0  0  0
    6.3075    0.4397   -1.6258 B   0  0  0  0  0  0  0  0  0  0  0  0
   -5.7341    1.7554   -1.4938 B   0  0  0  0  0  0  0  0  0  0  0  0
   -3.3469    2.9740   -0.1746 B   0  0  0  0  0  0  0  0  0  0  0  0
   -1.6646    3.6160    1.7973 B   0  0  0  0  0  0  0  0  0  0  0  0
   -0.0590    3.1640    1.3235 B   0  0  0  0  0  0  0  0  0  0  0  0
    2.9656    2.2589    0.6844 B   0  0  0  0  0  0  0  0  0  0  0  0
    5.7919    1.6725   -0.6985 B   0  0  0  0  0  0  0  0  0  0  0  0
   -6.6389    2.8000   -0.8422 B   0  0  0  0  0  0  0  0  0  0  0  0
   -4.4746    3.8873    0.5879 B   0  0  0  0  0  0  0  0  0  0  0  0
   -1.7771    5.1752    1.2154 B   0  0  0  0  0  0  0  0  0  0  0  0
    1.1754    4.4066    1.3290 B   0  0  0  0  0  0  0  0  0  0  0  0
    2.5938    3.9229    0.8796 B   0  0  0  0  0  0  0  0  0  0  0  0
    5.3509    2.9860   -0.0541 B   0  0  0  0  0  0  0  0  0  0  0  0
   -5.3190   -3.6348    0.4165 B   0  0  0  0  0  0  0  0  0  0  0  0
   -2.4877   -3.6329    1.6055 B   0  0  0  0  0  0  0  0  0  0  0  0
    0.3596   -4.7213    1.9063 B   0  0  0  0  0  0  0  0  0  0  0  0
    1.7215   -2.4162    0.7345 B   0  0  0  0  0  0  0  0  0  0  0  0
    4.3387   -3.4800   -0.0729 B   0  0  0  0  0  0  0  0  0  0  0  0
   -5.0953    2.8472   -0.3735 B   0  0  0  0  0  0  0  0  0  0  0  0
   -3.0345    4.3187    0.9326 B   0  0  0  0  0  0  0  0  0  0  0  0
   -0.2869    4.8951    1.4426 B   0  0  0  0  0  0  0  0  0  0  0  0
    1.4616    2.5482    0.9924 B   0  0  0  0  0  0  0  0  0  0  0  0
    4.0784    3.6198    0.5106 B   0  0  0  0  0  0  0  0  0  0  0  0
   -4.5957    0.5913   -1.8415 B   0  0  0  0  0  0  0  0  0  0  0  0
   -7.3684   -2.5027   -0.8103 H   0  0  0  0  0  0  0  0  0  0  0  0
   -4.9591   -1.3760   -3.7739 H   0  0  0  0  0  0  0  0  0  0  0  0
   -6.3246    1.2608   -3.8715 H   0  0  0  0  0  0  0  0  0  0  0  0
   -7.6134    3.4017   -0.5976 H   0  0  0  0  0  0  0  0  0  0  0  0
    6.3612   -4.9354   -0.3602 H   0  0  0  0  0  0  0  0  0  0  0  0
    8.0163   -2.4682   -0.9061 H   0  0  0  0  0  0  0  0  0  0  0  0
    6.9392    0.6146   -2.6128 H   0  0  0  0  0  0  0  0  0  0  0  0
  1  2  1  0  0  0  0
  2  3  1  0  0  0  0
  2  4  1  0  0  0  0
  4  5  4  0  0  0  0
  5  6  4  0  0  0  0
  6  7  4  0  0  0  0
  7  8  4  0  0  0  0
  8  9  4  0  0  0  0
  9 10  4  0  0  0  0
 10 11  4  0  0  0  0
 11 12  4  0  0  0  0
 12 13  1  0  0  0  0
 13 14  1  0  0  0  0
 13 15  1  0  0  0  0
 12 16  4  0  0  0  0
  9 17  4  0  0  0  0
 16 17  4  0  0  0  0
 17 18  1  0  0  0  0
  7 19  4  0  0  0  0
 18 19  1  0  0  0  0
  4 20  4  0  0  0  0
 19 20  4  0  0  0  0
  1 21  1  0  0  0  0
  1 22  1  0  0  0  0
  1 23  1  0  0  0  0
  3 24  1  0  0  0  0
  3 25  1  0  0  0  0
  3 26  1  0  0  0  0
  5 27  1  0  0  0  0
  6 28  1  0  0  0  0
 10 29  1  0  0  0  0
 11 30  1  0  0  0  0
 14 31  1  0  0  0  0
 14 32  1  0  0  0  0
 14 33  1  0  0  0  0
 15 34  1  0  0  0  0
 15 35  1  0  0  0  0
 15 36  1  0  0  0  0
 16 37  1  0  0  0  0
 20 38  1  0  0  0  0
 42 43  1  0  0  0  0
 39 45  1  0  0  0  0
 40 45  1  0  0  0  0
 40 46  1  0  0  0  0
 41 47  1  0  0  0  0
 46 47  1  0  0  0  0
 41 48  1  0  0  0  0
 42 48  1  0  0  0  0
 47 48  1  0  0  0  0
 43 49  1  0  0  0  0
 44 50  1  0  0  0  0
 45 51  1  0  0  0  0
 45 52  1  0  0  0  0
 46 52  1  0  0  0  0
 51 52  1  0  0  0  0
 47 53  1  0  0  0  0
 48 54  1  0  0  0  0
 53 54  1  0  0  0  0
 49 55  1  0  0  0  0
 50 55  1  0  0  0  0
 44 56  1  0  0  0  0
 50 56  1  0  0  0  0
 51 57  1  0  0  0  0
 51 58  1  0  0  0  0
 52 58  1  0  0  0  0
 53 59  1  0  0  0  0
 53 60  1  0  0  0  0
 54 60  1  0  0  0  0
 59 60  1  0  0  0  0
 55 61  1  0  0  0  0
 50 62  1  0  0  0  0
 55 62  1  0  0  0  0
 56 62  1  0  0  0  0
 61 62  1  0  0  0  0
 57 63  1  0  0  0  0
 58 64  1  0  0  0  0
 59 65  1  0  0  0  0
 59 66  1  0  0  0  0
 60 66  1  0  0  0  0
 65 66  1  0  0  0  0
 61 67  1  0  0  0  0
 61 68  1  0  0  0  0
 62 68  1  0  0  0  0
 63 69  1  0  0  0  0
 64 70  2  0  0  0  0
 65 71  1  0  0  0  0
 65 72  1  0  0  0  0
 66 72  1  0  0  0  0
 71 72  1  0  0  0  0
 67 73  1  0  0  0  0
 61 74  1  0  0  0  0
 67 74  1  0  0  0  0
 68 74  1  0  0  0  0
 69 75  1  0  0  0  0
 70 76  1  0  0  0  0
 71 77  1  0  0  0  0
 72 78  1  0  0  0  0
 73 79  1  0  0  0  0
 78 79  1  0  0  0  0
 67 80  1  0  0  0  0
 74 80  1  0  0  0  0
 39 81  2  0  0  0  0
 40 81  1  0  0  0  0
 45 81  1  0  0  0  0
 40 82  1  0  0  0  0
 41 82  1  0  0  0  0
 46 82  1  0  0  0  0
 47 82  1  0  0  0  0
 41 83  1  0  0  0  0
 42 83  1  0  0  0  0
 48 83  1  0  0  0  0
 42 84  1  0  0  0  0
 43 84  1  0  0  0  0
 48 84  1  0  0  0  0
 49 84  1  0  0  0  0
 54 84  1  0  0  0  0
 43 85  1  0  0  0  0
 44 85  1  0  0  0  0
 49 85  1  0  0  0  0
 50 85  1  0  0  0  0
 69 86  1  0  0  0  0
 70 86  1  0  0  0  0
 75 86  1  0  0  0  0
 76 86  1  0  0  0  0
 70 87  1  0  0  0  0
 71 87  1  0  0  0  0
 76 87  1  0  0  0  0
 77 87  1  0  0  0  0
 71 88  1  0  0  0  0
 72 88  1  0  0  0  0
 77 88  1  0  0  0  0
 78 88  1  0  0  0  0
 66 89  1  0  0  0  0
 72 89  1  0  0  0  0
 73 89  1  0  0  0  0
 78 89  1  0  0  0  0
 79 89  1  0  0  0  0
 67 90  1  0  0  0  0
 73 90  1  0  0  0  0
 79 90  1  0  0  0  0
 80 90  1  0  0  0  0
 51 91  1  0  0  0  0
 57 91  1  0  0  0  0
 58 91  1  0  0  0  0
 63 91  1  0  0  0  0
 69 91  1  0  0  0  0
 39 92  1  0  0  0  0
 57 93  1  0  0  0  0
 63 94  1  0  0  0  0
 75 95  1  0  0  0  0
 44 96  1  0  0  0  0
 56 97  1  0  0  0  0
 68 98  1  0  0  0  0
M  CHG  1   1   1
M  END
