 xtb: 6.7.1pre (5071a88)
          09012616343D

 94136  0     0  0            999 V2000
    2.3897   -1.7163    6.5441 C   0  0  0  0  0  0  0  0  0  0  0  0
    1.1432   -0.9005    6.9003 C   0  0  0  0  0  0  0  0  0  0  0  0
    0.9341   -0.8870    8.4315 C   0  0  0  0  0  0  0  0  0  0  0  0
   -0.3156   -0.0696    8.7953 C   0  0  0  0  0  0  0  0  0  0  0  0
   -0.1424    1.3739    8.2966 C   0  0  0  0  0  0  0  0  0  0  0  0
    0.0502    1.3959    6.7633 C   0  0  0  0  0  0  0  0  0  0  0  0
    0.2229    2.8367    6.2728 C   0  0  0  0  0  0  0  0  0  0  0  0
    1.2999    0.5571    6.4077 C   0  0  0  0  0  0  0  0  0  0  0  0
   -1.1875    0.7494    6.0975 C   0  0  0  0  0  0  0  0  0  0  0  0
   -1.3687   -0.7026    6.5911 C   0  0  0  0  0  0  0  0  0  0  0  0
   -2.5414   -1.3099    5.9626 N   0  0  0  0  0  0  0  0  0  0  0  0
   -1.5480   -0.6965    8.1229 C   0  0  0  0  0  0  0  0  0  0  0  0
   -0.1085   -1.5183    6.2330 C   0  0  0  0  0  0  0  0  0  0  0  0
    2.5530   -1.7360    5.4610 H   0  0  0  0  0  0  0  0  0  0  0  0
    3.2862   -1.2916    7.0093 H   0  0  0  0  0  0  0  0  0  0  0  0
    2.2950   -2.7527    6.8865 H   0  0  0  0  0  0  0  0  0  0  0  0
    1.8127   -0.4586    8.9309 H   0  0  0  0  0  0  0  0  0  0  0  0
    0.8266   -1.9120    8.8091 H   0  0  0  0  0  0  0  0  0  0  0  0
   -0.4508   -0.0691    9.8827 H   0  0  0  0  0  0  0  0  0  0  0  0
   -1.0212    1.9686    8.5774 H   0  0  0  0  0  0  0  0  0  0  0  0
    0.7208    1.8344    8.7943 H   0  0  0  0  0  0  0  0  0  0  0  0
   -0.6548    3.4452    6.5170 H   0  0  0  0  0  0  0  0  0  0  0  0
    0.3608    2.8705    5.1864 H   0  0  0  0  0  0  0  0  0  0  0  0
    1.0962    3.3096    6.7352 H   0  0  0  0  0  0  0  0  0  0  0  0
    1.4607    0.5688    5.3212 H   0  0  0  0  0  0  0  0  0  0  0  0
    2.1934    1.0093    6.8590 H   0  0  0  0  0  0  0  0  0  0  0  0
   -2.0844    1.3415    6.3264 H   0  0  0  0  0  0  0  0  0  0  0  0
   -1.0737    0.7665    5.0047 H   0  0  0  0  0  0  0  0  0  0  0  0
   -3.3722   -0.7584    6.1739 H   0  0  0  0  0  0  0  0  0  0  0  0
   -2.4397   -1.2908    4.9485 H   0  0  0  0  0  0  0  0  0  0  0  0
   -2.4463   -0.1307    8.4036 H   0  0  0  0  0  0  0  0  0  0  0  0
   -1.6902   -1.7190    8.4975 H   0  0  0  0  0  0  0  0  0  0  0  0
    0.0276   -1.5471    5.1430 H   0  0  0  0  0  0  0  0  0  0  0  0
   -0.2276   -2.5607    6.5596 H   0  0  0  0  0  0  0  0  0  0  0  0
   -6.9256   -4.6511    0.2587 B   0  0  0  0  0  0  0  0  0  0  0  0
   -5.1098   -2.2493    0.3222 B   0  0  0  0  0  0  0  0  0  0  0  0
   -3.5915   -2.1814    0.2128 B   0  0  0  0  0  0  0  0  0  0  0  0
    0.9993   -2.8754    0.0638 B   0  0  0  0  0  0  0  0  0  0  0  0
    2.4759   -3.0122   -0.2709 B   0  0  0  0  0  0  0  0  0  0  0  0
    5.2994   -3.8314   -0.6672 B   0  0  0  0  0  0  0  0  0  0  0  0
    6.3183   -4.8359   -1.1558 B   0  0  0  0  0  0  0  0  0  0  0  0
   -6.4348   -3.1583    0.2864 B   0  0  0  0  0  0  0  0  0  0  0  0
   -6.7520   -1.6338    0.3164 B   0  0  0  0  0  0  0  0  0  0  0  0
   -2.0526   -2.3173    0.3349 B   0  0  0  0  0  0  0  0  0  0  0  0
   -0.4841   -2.4619    0.2574 B   0  0  0  0  0  0  0  0  0  0  0  0
    4.0184   -2.9011   -0.2872 B   0  0  0  0  0  0  0  0  0  0  0  0
    5.7532   -2.2815   -0.3028 B   0  0  0  0  0  0  0  0  0  0  0  0
    6.8301   -3.2288   -1.0929 B   0  0  0  0  0  0  0  0  0  0  0  0
   -7.6564   -0.2550    0.3431 B   0  0  0  0  0  0  0  0  0  0  0  0
   -6.0374   -0.1395    0.1913 B   0  0  0  0  0  0  0  0  0  0  0  0
   -4.4316   -0.5357    0.2239 B   0  0  0  0  0  0  0  0  0  0  0  0
   -2.7379   -0.6604    0.3290 B   0  0  0  0  0  0  0  0  0  0  0  0
   -1.0518   -0.9157    0.6419 B   0  0  0  0  0  0  0  0  0  0  0  0
    0.5171   -1.1722    0.7257 B   0  0  0  0  0  0  0  0  0  0  0  0
    3.1231   -1.4831   -0.0635 B   0  0  0  0  0  0  0  0  0  0  0  0
    4.7001   -1.1340    0.3402 B   0  0  0  0  0  0  0  0  0  0  0  0
    6.2667   -0.7872    0.2517 B   0  0  0  0  0  0  0  0  0  0  0  0
    7.6720   -0.3517    1.0327 B   0  0  0  0  0  0  0  0  0  0  0  0
   -6.9181    1.2121    0.1915 B   0  0  0  0  0  0  0  0  0  0  0  0
   -3.4184    0.7801    0.0809 B   0  0  0  0  0  0  0  0  0  0  0  0
   -1.6542    0.5326    0.1239 B   0  0  0  0  0  0  0  0  0  0  0  0
    1.8622   -0.4037    0.3246 B   0  0  0  0  0  0  0  0  0  0  0  0
    3.5847   -0.1504    0.7852 B   0  0  0  0  0  0  0  0  0  0  0  0
    6.9910    0.6111   -0.1068 B   0  0  0  0  0  0  0  0  0  0  0  0
    8.3074    1.0629    0.6316 B   0  0  0  0  0  0  0  0  0  0  0  0
   -7.6194    2.8040    0.2986 B   0  0  0  0  0  0  0  0  0  0  0  0
   -6.1238    2.5185   -0.1765 B   0  0  0  0  0  0  0  0  0  0  0  0
   -3.5886    2.3277   -0.2368 B   0  0  0  0  0  0  0  0  0  0  0  0
   -0.9061    1.8195   -0.4198 B   0  0  0  0  0  0  0  0  0  0  0  0
    1.6234    1.0199   -0.4108 B   0  0  0  0  0  0  0  0  0  0  0  0
    3.0108    1.3090    0.5297 B   0  0  0  0  0  0  0  0  0  0  0  0
    6.3729    1.8582   -0.9160 B   0  0  0  0  0  0  0  0  0  0  0  0
   -6.5277    4.0456   -0.1608 B   0  0  0  0  0  0  0  0  0  0  0  0
   -4.8736    3.4948   -0.3884 B   0  0  0  0  0  0  0  0  0  0  0  0
   -3.4155    3.8801   -0.6064 B   0  0  0  0  0  0  0  0  0  0  0  0
   -2.0235    3.2206   -0.6767 B   0  0  0  0  0  0  0  0  0  0  0  0
   -0.4974    3.2796   -0.8970 B   0  0  0  0  0  0  0  0  0  0  0  0
    0.7107    2.3324   -0.7457 B   0  0  0  0  0  0  0  0  0  0  0  0
    2.3353    2.4781   -0.4754 B   0  0  0  0  0  0  0  0  0  0  0  0
    3.8161    2.6195   -0.0941 B   0  0  0  0  0  0  0  0  0  0  0  0
    5.3698    2.8646   -0.1489 B   0  0  0  0  0  0  0  0  0  0  0  0
    6.0551    4.0800    0.6312 B   0  0  0  0  0  0  0  0  0  0  0  0
    6.2041    5.1477    0.1463 H   0  0  0  0  0  0  0  0  0  0  0  0
    8.2184   -1.1210    1.7268 H   0  0  0  0  0  0  0  0  0  0  0  0
    6.6224    1.9818   -2.0674 H   0  0  0  0  0  0  0  0  0  0  0  0
   -7.0900   -5.2506   -0.7538 H   0  0  0  0  0  0  0  0  0  0  0  0
   -6.7912    5.1815   -0.2852 H   0  0  0  0  0  0  0  0  0  0  0  0
    9.1569    1.8466    0.7900 H   0  0  0  0  0  0  0  0  0  0  0  0
   -8.8277   -0.3758    0.3286 H   0  0  0  0  0  0  0  0  0  0  0  0
    6.7839   -5.8690   -1.4465 H   0  0  0  0  0  0  0  0  0  0  0  0
   -8.7247    3.0012    0.6388 H   0  0  0  0  0  0  0  0  0  0  0  0
    7.8918   -2.8835   -1.4737 H   0  0  0  0  0  0  0  0  0  0  0  0
    6.4282    3.9996    1.7485 H   0  0  0  0  0  0  0  0  0  0  0  0
   -7.2249   -5.2823    1.2187 H   0  0  0  0  0  0  0  0  0  0  0  0
  1  2  1  0  0  0  0
  2  3  1  0  0  0  0
  3  4  1  0  0  0  0
  4  5  1  0  0  0  0
  5  6  1  0  0  0  0
  6  7  1  0  0  0  0
  2  8  1  0  0  0  0
  6  8  1  0  0  0  0
  6  9  1  0  0  0  0
  9 10  1  0  0  0  0
 10 11  1  0  0  0  0
  4 12  1  0  0  0  0
 10 12  1  0  0  0  0
  2 13  1  0  0  0  0
 10 13  1  0  0  0  0
  1 14  1  0  0  0  0
  1 15  1  0  0  0  0
  1 16  1  0  0  0  0
  3 17  1  0  0  0  0
  3 18  1  0  0  0  0
  4 19  1  0  0  0  0
  5 20  1  0  0  0  0
  5 21  1  0  0  0  0
  7 22  1  0  0  0  0
  7 23  1  0  0  0  0
  7 24  1  0  0  0  0
  8 25  1  0  0  0  0
  8 26  1  0  0  0  0
  9 27  1  0  0  0  0
  9 28  1  0  0  0  0
 11 29  1  0  0  0  0
 11 30  1  0  0  0  0
 12 31  1  0  0  0  0
 12 32  1  0  0  0  0
 13 33  1  0  0  0  0
 13 34  1  0  0  0  0
 36 37  1  0  0  0  0
 38 39  2  0  0  0  0
 40 41  2  0  0  0  0
 35 42  1  0  0  0  0
 36 42  1  0  0  0  0
 36 43  1  0  0  0  0
 42 43  1  0  0  0  0
 37 44  1  0  0  0  0
 38 45  1  0  0  0  0
 44 45  1  0  0  0  0
 39 46  1  0  0  0  0
 40 46  1  0  0  0  0
 40 47  1  0  0  0  0
 46 47  1  0  0  0  0
 40 48  1  0  0  0  0
 41 48  1  0  0  0  0
 47 48  1  0  0  0  0
 43 49  1  0  0  0  0
 43 50  1  0  0  0  0
 49 50  1  0  0  0  0
 36 51  1  0  0  0  0
 37 51  1  0  0  0  0
 50 51  1  0  0  0  0
 37 52  1  0  0  0  0
 44 52  1  0  0  0  0
 51 52  1  0  0  0  0
 44 53  1  0  0  0  0
 45 53  1  0  0  0  0
 52 53  1  0  0  0  0
 38 54  1  0  0  0  0
 45 54  1  0  0  0  0
 53 54  1  0  0  0  0
 39 55  1  0  0  0  0
 46 55  1  0  0  0  0
 46 56  1  0  0  0  0
 47 56  1  0  0  0  0
 55 56  1  0  0  0  0
 47 57  1  0  0  0  0
 56 57  1  0  0  0  0
 57 58  1  0  0  0  0
 49 59  1  0  0  0  0
 50 59  1  0  0  0  0
 51 60  1  0  0  0  0
 52 60  1  0  0  0  0
 52 61  1  0  0  0  0
 53 61  1  0  0  0  0
 60 61  1  0  0  0  0
 54 62  1  0  0  0  0
 55 62  1  0  0  0  0
 55 63  1  0  0  0  0
 56 63  1  0  0  0  0
 62 63  1  0  0  0  0
 57 64  1  0  0  0  0
 58 64  1  0  0  0  0
 58 65  1  0  0  0  0
 64 65  1  0  0  0  0
 59 66  1  0  0  0  0
 59 67  1  0  0  0  0
 66 67  1  0  0  0  0
 60 68  1  0  0  0  0
 61 69  1  0  0  0  0
 62 70  1  0  0  0  0
 63 71  1  0  0  0  0
 70 71  1  0  0  0  0
 64 72  1  0  0  0  0
 66 73  1  0  0  0  0
 67 73  1  0  0  0  0
 67 74  1  0  0  0  0
 68 74  1  0  0  0  0
 73 74  1  0  0  0  0
 68 75  1  0  0  0  0
 74 75  1  0  0  0  0
 68 76  1  0  0  0  0
 69 76  1  0  0  0  0
 75 76  1  0  0  0  0
 69 77  1  0  0  0  0
 76 77  1  0  0  0  0
 69 78  1  0  0  0  0
 70 78  1  0  0  0  0
 77 78  1  0  0  0  0
 70 79  1  0  0  0  0
 71 79  1  0  0  0  0
 78 79  1  0  0  0  0
 71 80  1  0  0  0  0
 79 80  1  0  0  0  0
 72 81  1  0  0  0  0
 80 81  1  0  0  0  0
 81 82  1  0  0  0  0
 82 83  1  0  0  0  0
 58 84  1  0  0  0  0
 72 85  1  0  0  0  0
 35 86  1  0  0  0  0
 73 87  1  0  0  0  0
 65 88  1  0  0  0  0
 49 89  1  0  0  0  0
 41 90  1  0  0  0  0
 66 91  1  0  0  0  0
 48 92  1  0  0  0  0
 82 93  1  0  0  0  0
 35 94  1  0  0  0  0
M  END
