 xtb: 6.7.1pre (5071a88)
          08312621153D

 94149  0     0  0            999 V2000
    2.3897   -1.7163    4.7957 C   0  0  0  0  0  0  0  0  0  0  0  0
    1.1432   -0.9005    5.1518 C   0  0  0  0  0  0  0  0  0  0  0  0
    0.9341   -0.8870    6.6830 C   0  0  0  0  0  0  0  0  0  0  0  0
   -0.3156   -0.0696    7.0468 C   0  0  0  0  0  0  0  0  0  0  0  0
   -0.1424    1.3739    6.5481 C   0  0  0  0  0  0  0  0  0  0  0  0
    0.0502    1.3959    5.0149 C   0  0  0  0  0  0  0  0  0  0  0  0
    0.2229    2.8367    4.5243 C   0  0  0  0  0  0  0  0  0  0  0  0
    1.2999    0.5571    4.6592 C   0  0  0  0  0  0  0  0  0  0  0  0
   -1.1875    0.7494    4.3490 C   0  0  0  0  0  0  0  0  0  0  0  0
   -1.3687   -0.7026    4.8426 C   0  0  0  0  0  0  0  0  0  0  0  0
   -2.5414   -1.3099    4.2141 N   0  0  0  0  0  0  0  0  0  0  0  0
   -1.5480   -0.6965    6.3744 C   0  0  0  0  0  0  0  0  0  0  0  0
   -0.1085   -1.5183    4.4845 C   0  0  0  0  0  0  0  0  0  0  0  0
    2.5530   -1.7360    3.7125 H   0  0  0  0  0  0  0  0  0  0  0  0
    3.2862   -1.2916    5.2608 H   0  0  0  0  0  0  0  0  0  0  0  0
    2.2950   -2.7527    5.1380 H   0  0  0  0  0  0  0  0  0  0  0  0
    1.8127   -0.4586    7.1825 H   0  0  0  0  0  0  0  0  0  0  0  0
    0.8266   -1.9120    7.0606 H   0  0  0  0  0  0  0  0  0  0  0  0
   -0.4508   -0.0691    8.1343 H   0  0  0  0  0  0  0  0  0  0  0  0
   -1.0212    1.9686    6.8290 H   0  0  0  0  0  0  0  0  0  0  0  0
    0.7208    1.8344    7.0458 H   0  0  0  0  0  0  0  0  0  0  0  0
   -0.6548    3.4452    4.7686 H   0  0  0  0  0  0  0  0  0  0  0  0
    0.3608    2.8705    3.4380 H   0  0  0  0  0  0  0  0  0  0  0  0
    1.0962    3.3096    4.9867 H   0  0  0  0  0  0  0  0  0  0  0  0
    1.4607    0.5688    3.5727 H   0  0  0  0  0  0  0  0  0  0  0  0
    2.1934    1.0093    5.1106 H   0  0  0  0  0  0  0  0  0  0  0  0
   -2.0844    1.3415    4.5780 H   0  0  0  0  0  0  0  0  0  0  0  0
   -1.0737    0.7665    3.2563 H   0  0  0  0  0  0  0  0  0  0  0  0
   -3.3722   -0.7584    4.4254 H   0  0  0  0  0  0  0  0  0  0  0  0
   -2.4397   -1.2908    3.2000 H   0  0  0  0  0  0  0  0  0  0  0  0
   -2.4463   -0.1307    6.6551 H   0  0  0  0  0  0  0  0  0  0  0  0
   -1.6902   -1.7190    6.7490 H   0  0  0  0  0  0  0  0  0  0  0  0
    0.0276   -1.5471    3.3945 H   0  0  0  0  0  0  0  0  0  0  0  0
   -0.2276   -2.5607    4.8111 H   0  0  0  0  0  0  0  0  0  0  0  0
   -6.3511   -2.8545   -0.3396 B   0  0  0  0  0  0  0  0  0  0  0  0
   -3.8632   -3.4276    0.8712 B   0  0  0  0  0  0  0  0  0  0  0  0
   -1.0552   -4.1651    1.9793 B   0  0  0  0  0  0  0  0  0  0  0  0
    1.6853   -4.2318    1.3549 B   0  0  0  0  0  0  0  0  0  0  0  0
    2.9703   -3.6923    0.6219 B   0  0  0  0  0  0  0  0  0  0  0  0
    5.9076   -3.8486   -0.3800 B   0  0  0  0  0  0  0  0  0  0  0  0
   -4.7612   -2.3307   -0.4078 B   0  0  0  0  0  0  0  0  0  0  0  0
   -2.6199   -2.2111    0.8442 B   0  0  0  0  0  0  0  0  0  0  0  0
   -1.2327   -2.3911    1.7792 B   0  0  0  0  0  0  0  0  0  0  0  0
    0.2814   -3.1446    1.2586 B   0  0  0  0  0  0  0  0  0  0  0  0
    3.1280   -2.1353    0.0337 B   0  0  0  0  0  0  0  0  0  0  0  0
    5.2824   -2.5807   -1.1427 B   0  0  0  0  0  0  0  0  0  0  0  0
   -4.3827   -1.0545   -1.3461 B   0  0  0  0  0  0  0  0  0  0  0  0
   -3.1924   -1.2685   -0.2398 B   0  0  0  0  0  0  0  0  0  0  0  0
   -0.7667   -0.9151    2.1471 B   0  0  0  0  0  0  0  0  0  0  0  0
    0.4341   -1.5098    0.8825 B   0  0  0  0  0  0  0  0  0  0  0  0
    4.2603   -1.2719   -0.6057 B   0  0  0  0  0  0  0  0  0  0  0  0
    6.8452   -2.4756   -0.8065 B   0  0  0  0  0  0  0  0  0  0  0  0
   -5.0072   -0.6437   -2.8496 B   0  0  0  0  0  0  0  0  0  0  0  0
   -3.1952    0.1543   -0.9257 B   0  0  0  0  0  0  0  0  0  0  0  0
   -0.9469    0.6233    2.2104 B   0  0  0  0  0  0  0  0  0  0  0  0
    0.0016   -0.0204    0.9084 B   0  0  0  0  0  0  0  0  0  0  0  0
    4.8754    0.2242   -0.5476 B   0  0  0  0  0  0  0  0  0  0  0  0
    5.8786   -1.0664   -1.1306 B   0  0  0  0  0  0  0  0  0  0  0  0
   -5.7672    0.8535   -2.9176 B   0  0  0  0  0  0  0  0  0  0  0  0
   -2.8971    1.6282   -0.7083 B   0  0  0  0  0  0  0  0  0  0  0  0
   -1.2399    2.1332    2.0889 B   0  0  0  0  0  0  0  0  0  0  0  0
    0.1883    1.5499    1.0540 B   0  0  0  0  0  0  0  0  0  0  0  0
    4.2581    1.5841    0.0647 B   0  0  0  0  0  0  0  0  0  0  0  0
    6.3075    0.4397   -1.6258 B   0  0  0  0  0  0  0  0  0  0  0  0
   -5.7341    1.7554   -1.4938 B   0  0  0  0  0  0  0  0  0  0  0  0
   -3.3469    2.9740   -0.1746 B   0  0  0  0  0  0  0  0  0  0  0  0
   -1.6646    3.6160    1.7973 B   0  0  0  0  0  0  0  0  0  0  0  0
   -0.0590    3.1640    1.3235 B   0  0  0  0  0  0  0  0  0  0  0  0
    2.9656    2.2589    0.6844 B   0  0  0  0  0  0  0  0  0  0  0  0
    5.7919    1.6725   -0.6985 B   0  0  0  0  0  0  0  0  0  0  0  0
   -6.6389    2.8000   -0.8422 B   0  0  0  0  0  0  0  0  0  0  0  0
   -4.4746    3.8873    0.5879 B   0  0  0  0  0  0  0  0  0  0  0  0
   -1.7771    5.1752    1.2154 B   0  0  0  0  0  0  0  0  0  0  0  0
    1.1754    4.4066    1.3290 B   0  0  0  0  0  0  0  0  0  0  0  0
    2.5938    3.9229    0.8796 B   0  0  0  0  0  0  0  0  0  0  0  0
    5.3509    2.9860   -0.0541 B   0  0  0  0  0  0  0  0  0  0  0  0
   -5.3190   -3.6348    0.4165 B   0  0  0  0  0  0  0  0  0  0  0  0
   -2.4877   -3.6329    1.6055 B   0  0  0  0  0  0  0  0  0  0  0  0
    0.3596   -4.7213    1.9063 B   0  0  0  0  0  0  0  0  0  0  0  0
    1.7215   -2.4162    0.7345 B   0  0  0  0  0  0  0  0  0  0  0  0
    4.3387   -3.4800   -0.0729 B   0  0  0  0  0  0  0  0  0  0  0  0
   -5.0953    2.8472   -0.3735 B   0  0  0  0  0  0  0  0  0  0  0  0
   -3.0345    4.3187    0.9326 B   0  0  0  0  0  0  0  0  0  0  0  0
   -0.2869    4.8951    1.4426 B   0  0  0  0  0  0  0  0  0  0  0  0
    1.4616    2.5482    0.9924 B   0  0  0  0  0  0  0  0  0  0  0  0
    4.0784    3.6198    0.5106 B   0  0  0  0  0  0  0  0  0  0  0  0
   -4.5957    0.5913   -1.8415 B   0  0  0  0  0  0  0  0  0  0  0  0
   -7.3684   -2.5027   -0.8103 H   0  0  0  0  0  0  0  0  0  0  0  0
   -4.9591   -1.3760   -3.7739 H   0  0  0  0  0  0  0  0  0  0  0  0
   -6.3246    1.2608   -3.8715 H   0  0  0  0  0  0  0  0  0  0  0  0
   -7.6134    3.4017   -0.5976 H   0  0  0  0  0  0  0  0  0  0  0  0
    6.3612   -4.9354   -0.3602 H   0  0  0  0  0  0  0  0  0  0  0  0
    8.0163   -2.4682   -0.9061 H   0  0  0  0  0  0  0  0  0  0  0  0
    6.9392    0.6146   -2.6128 H   0  0  0  0  0  0  0  0  0  0  0  0
  1  2  1  0  0  0  0
  2  3  1  0  0  0  0
  3  4  1  0  0  0  0
  4  5  1  0  0  0  0
  5  6  1  0  0  0  0
  6  7  1  0  0  0  0
  2  8  1  0  0  0  0
  6  8  1  0  0  0  0
  6  9  1  0  0  0  0
  9 10  1  0  0  0  0
 10 11  1  0  0  0  0
  4 12  1  0  0  0  0
 10 12  1  0  0  0  0
  2 13  1  0  0  0  0
 10 13  1  0  0  0  0
  1 14  1  0  0  0  0
  1 15  1  0  0  0  0
  1 16  1  0  0  0  0
  3 17  1  0  0  0  0
  3 18  1  0  0  0  0
  4 19  1  0  0  0  0
  5 20  1  0  0  0  0
  5 21  1  0  0  0  0
  7 22  1  0  0  0  0
  7 23  1  0  0  0  0
  7 24  1  0  0  0  0
  8 25  1  0  0  0  0
  8 26  1  0  0  0  0
  9 27  1  0  0  0  0
  9 28  1  0  0  0  0
 11 29  1  0  0  0  0
 11 30  1  0  0  0  0
 12 31  1  0  0  0  0
 12 32  1  0  0  0  0
 13 33  1  0  0  0  0
 13 34  1  0  0  0  0
 38 39  1  0  0  0  0
 35 41  1  0  0  0  0
 36 41  1  0  0  0  0
 36 42  1  0  0  0  0
 37 43  1  0  0  0  0
 42 43  1  0  0  0  0
 37 44  1  0  0  0  0
 38 44  1  0  0  0  0
 43 44  1  0  0  0  0
 39 45  1  0  0  0  0
 40 46  1  0  0  0  0
 41 47  1  0  0  0  0
 41 48  1  0  0  0  0
 42 48  1  0  0  0  0
 47 48  1  0  0  0  0
 43 49  1  0  0  0  0
 44 50  1  0  0  0  0
 49 50  1  0  0  0  0
 45 51  1  0  0  0  0
 46 51  1  0  0  0  0
 40 52  1  0  0  0  0
 46 52  1  0  0  0  0
 47 53  1  0  0  0  0
 47 54  1  0  0  0  0
 48 54  1  0  0  0  0
 49 55  1  0  0  0  0
 49 56  1  0  0  0  0
 50 56  1  0  0  0  0
 55 56  1  0  0  0  0
 51 57  1  0  0  0  0
 46 58  1  0  0  0  0
 51 58  1  0  0  0  0
 52 58  1  0  0  0  0
 57 58  1  0  0  0  0
 53 59  1  0  0  0  0
 54 60  1  0  0  0  0
 55 61  1  0  0  0  0
 55 62  1  0  0  0  0
 56 62  1  0  0  0  0
 61 62  1  0  0  0  0
 57 63  1  0  0  0  0
 57 64  1  0  0  0  0
 58 64  1  0  0  0  0
 59 65  1  0  0  0  0
 60 66  2  0  0  0  0
 61 67  1  0  0  0  0
 61 68  1  0  0  0  0
 62 68  1  0  0  0  0
 67 68  1  0  0  0  0
 63 69  1  0  0  0  0
 57 70  1  0  0  0  0
 63 70  1  0  0  0  0
 64 70  1  0  0  0  0
 65 71  1  0  0  0  0
 66 72  1  0  0  0  0
 67 73  1  0  0  0  0
 68 74  1  0  0  0  0
 69 75  1  0  0  0  0
 74 75  1  0  0  0  0
 63 76  1  0  0  0  0
 70 76  1  0  0  0  0
 35 77  2  0  0  0  0
 36 77  1  0  0  0  0
 41 77  1  0  0  0  0
 36 78  1  0  0  0  0
 37 78  1  0  0  0  0
 42 78  1  0  0  0  0
 43 78  1  0  0  0  0
 37 79  1  0  0  0  0
 38 79  1  0  0  0  0
 44 79  1  0  0  0  0
 38 80  1  0  0  0  0
 39 80  1  0  0  0  0
 44 80  1  0  0  0  0
 45 80  1  0  0  0  0
 50 80  1  0  0  0  0
 39 81  1  0  0  0  0
 40 81  1  0  0  0  0
 45 81  1  0  0  0  0
 46 81  1  0  0  0  0
 65 82  1  0  0  0  0
 66 82  1  0  0  0  0
 71 82  1  0  0  0  0
 72 82  1  0  0  0  0
 66 83  1  0  0  0  0
 67 83  1  0  0  0  0
 72 83  1  0  0  0  0
 73 83  1  0  0  0  0
 67 84  1  0  0  0  0
 68 84  1  0  0  0  0
 73 84  1  0  0  0  0
 74 84  1  0  0  0  0
 62 85  1  0  0  0  0
 68 85  1  0  0  0  0
 69 85  1  0  0  0  0
 74 85  1  0  0  0  0
 75 85  1  0  0  0  0
 63 86  1  0  0  0  0
 69 86  1  0  0  0  0
 75 86  1  0  0  0  0
 76 86  2  0  0  0  0
 47 87  1  0  0  0  0
 53 87  1  0  0  0  0
 54 87  1  0  0  0  0
 59 87  1  0  0  0  0
 65 87  1  0  0  0  0
 35 88  1  0  0  0  0
 53 89  1  0  0  0  0
 59 90  1  0  0  0  0
 71 91  1  0  0  0  0
 40 92  1  0  0  0  0
 52 93  1  0  0  0  0
 64 94  1  0  0  0  0
M  END
