 xtb: 6.7.1pre (5071a88)
          09012620283D

 89126  0     0  0            999 V2000
    2.3897   -1.7163    7.7713 C   0  0  0  0  0  0  0  0  0  0  0  0
    1.1432   -0.9005    8.1275 C   0  0  0  0  0  0  0  0  0  0  0  0
    0.9341   -0.8870    9.6587 C   0  0  0  0  0  0  0  0  0  0  0  0
   -0.3156   -0.0696   10.0225 C   0  0  0  0  0  0  0  0  0  0  0  0
   -0.1424    1.3739    9.5238 C   0  0  0  0  0  0  0  0  0  0  0  0
    0.0502    1.3959    7.9905 C   0  0  0  0  0  0  0  0  0  0  0  0
    0.2229    2.8367    7.5000 C   0  0  0  0  0  0  0  0  0  0  0  0
    1.2999    0.5571    7.6349 C   0  0  0  0  0  0  0  0  0  0  0  0
   -1.1875    0.7494    7.3247 C   0  0  0  0  0  0  0  0  0  0  0  0
   -1.3687   -0.7026    7.8183 C   0  0  0  0  0  0  0  0  0  0  0  0
   -2.5414   -1.3099    7.1898 N   0  0  0  0  0  0  0  0  0  0  0  0
   -1.5480   -0.6965    9.3501 C   0  0  0  0  0  0  0  0  0  0  0  0
   -0.1085   -1.5183    7.4602 C   0  0  0  0  0  0  0  0  0  0  0  0
    2.5530   -1.7360    6.6882 H   0  0  0  0  0  0  0  0  0  0  0  0
    3.2862   -1.2916    8.2365 H   0  0  0  0  0  0  0  0  0  0  0  0
    2.2950   -2.7527    8.1137 H   0  0  0  0  0  0  0  0  0  0  0  0
    1.8127   -0.4586   10.1581 H   0  0  0  0  0  0  0  0  0  0  0  0
    0.8266   -1.9120   10.0363 H   0  0  0  0  0  0  0  0  0  0  0  0
   -0.4508   -0.0691   11.1100 H   0  0  0  0  0  0  0  0  0  0  0  0
   -1.0212    1.9686    9.8046 H   0  0  0  0  0  0  0  0  0  0  0  0
    0.7208    1.8344   10.0215 H   0  0  0  0  0  0  0  0  0  0  0  0
   -0.6548    3.4452    7.7442 H   0  0  0  0  0  0  0  0  0  0  0  0
    0.3608    2.8705    6.4136 H   0  0  0  0  0  0  0  0  0  0  0  0
    1.0962    3.3096    7.9624 H   0  0  0  0  0  0  0  0  0  0  0  0
    1.4607    0.5688    6.5484 H   0  0  0  0  0  0  0  0  0  0  0  0
    2.1934    1.0093    8.0862 H   0  0  0  0  0  0  0  0  0  0  0  0
   -2.0844    1.3415    7.5536 H   0  0  0  0  0  0  0  0  0  0  0  0
   -1.0737    0.7665    6.2320 H   0  0  0  0  0  0  0  0  0  0  0  0
   -3.3722   -0.7584    7.4011 H   0  0  0  0  0  0  0  0  0  0  0  0
   -2.4397   -1.2908    6.1757 H   0  0  0  0  0  0  0  0  0  0  0  0
   -2.4463   -0.1307    9.6308 H   0  0  0  0  0  0  0  0  0  0  0  0
   -1.6902   -1.7190    9.7247 H   0  0  0  0  0  0  0  0  0  0  0  0
    0.0276   -1.5471    6.3702 H   0  0  0  0  0  0  0  0  0  0  0  0
   -0.2276   -2.5607    7.7868 H   0  0  0  0  0  0  0  0  0  0  0  0
   -4.7806   -2.6045    0.3173 B   0  0  0  0  0  0  0  0  0  0  0  0
   -4.5695   -1.3567   -0.6480 B   0  0  0  0  0  0  0  0  0  0  0  0
   -4.4639   -0.2474   -1.8829 B   0  0  0  0  0  0  0  0  0  0  0  0
   -3.3965   -2.6620   -0.5028 B   0  0  0  0  0  0  0  0  0  0  0  0
   -3.0380    0.1776   -1.4048 B   0  0  0  0  0  0  0  0  0  0  0  0
   -4.3909    0.3426   -0.1924 B   0  0  0  0  0  0  0  0  0  0  0  0
   -5.0310    1.4031    0.8192 B   0  0  0  0  0  0  0  0  0  0  0  0
   -4.6201    2.9864    0.9976 B   0  0  0  0  0  0  0  0  0  0  0  0
   -2.8089    0.5128    0.1995 B   0  0  0  0  0  0  0  0  0  0  0  0
   -3.2186    3.2275    1.7932 B   0  0  0  0  0  0  0  0  0  0  0  0
   -2.1611   -3.7758   -0.5843 B   0  0  0  0  0  0  0  0  0  0  0  0
   -1.8769   -2.2481   -0.9334 B   0  0  0  0  0  0  0  0  0  0  0  0
   -1.6972   -0.6133   -0.8358 B   0  0  0  0  0  0  0  0  0  0  0  0
   -0.5844   -3.2190   -0.8350 B   0  0  0  0  0  0  0  0  0  0  0  0
   -0.2198   -0.1484   -0.3118 B   0  0  0  0  0  0  0  0  0  0  0  0
   -1.3950    0.0358    0.8521 B   0  0  0  0  0  0  0  0  0  0  0  0
   -1.7757    1.6621    0.7592 B   0  0  0  0  0  0  0  0  0  0  0  0
   -1.8975    3.2370    0.8826 B   0  0  0  0  0  0  0  0  0  0  0  0
   -0.2153    1.0372    1.0697 B   0  0  0  0  0  0  0  0  0  0  0  0
   -0.7521    4.3480    0.5584 B   0  0  0  0  0  0  0  0  0  0  0  0
    0.8265   -4.1129   -0.7400 B   0  0  0  0  0  0  0  0  0  0  0  0
    0.9251   -2.5054   -0.7497 B   0  0  0  0  0  0  0  0  0  0  0  0
    1.2144   -0.9490   -0.5870 B   0  0  0  0  0  0  0  0  0  0  0  0
    2.2007   -3.4026   -0.1682 B   0  0  0  0  0  0  0  0  0  0  0  0
    2.6220   -0.1957   -0.2930 B   0  0  0  0  0  0  0  0  0  0  0  0
    1.2341    0.5516    0.1426 B   0  0  0  0  0  0  0  0  0  0  0  0
    1.1248    2.0009    1.0430 B   0  0  0  0  0  0  0  0  0  0  0  0
    0.5366    3.4372    0.6180 B   0  0  0  0  0  0  0  0  0  0  0  0
    2.4580    1.6726    0.0875 B   0  0  0  0  0  0  0  0  0  0  0  0
    1.2136    3.0171   -0.8530 B   0  0  0  0  0  0  0  0  0  0  0  0
    3.2202   -3.8508    1.1044 B   0  0  0  0  0  0  0  0  0  0  0  0
    3.6240   -2.6535    0.0637 B   0  0  0  0  0  0  0  0  0  0  0  0
    4.0250   -1.1219   -0.2366 B   0  0  0  0  0  0  0  0  0  0  0  0
    4.4174   -2.8355    1.4203 B   0  0  0  0  0  0  0  0  0  0  0  0
    5.3636   -0.2419   -0.6898 B   0  0  0  0  0  0  0  0  0  0  0  0
    4.1041    0.5310   -0.0135 B   0  0  0  0  0  0  0  0  0  0  0  0
    4.0181    2.3218   -0.0338 B   0  0  0  0  0  0  0  0  0  0  0  0
    2.8218    3.0968   -0.9129 B   0  0  0  0  0  0  0  0  0  0  0  0
    5.4220    1.4583   -0.1853 B   0  0  0  0  0  0  0  0  0  0  0  0
    4.2961    3.5501   -1.0140 B   0  0  0  0  0  0  0  0  0  0  0  0
   -5.1687   -3.0949    1.3107 H   0  0  0  0  0  0  0  0  0  0  0  0
   -5.7161   -2.0764   -0.3935 H   0  0  0  0  0  0  0  0  0  0  0  0
   -5.2640   -0.1207   -2.7417 H   0  0  0  0  0  0  0  0  0  0  0  0
   -5.7711    1.0074    1.6646 H   0  0  0  0  0  0  0  0  0  0  0  0
   -5.3645    3.8431    0.6720 H   0  0  0  0  0  0  0  0  0  0  0  0
   -3.2343    3.2250    2.9757 H   0  0  0  0  0  0  0  0  0  0  0  0
   -2.3593   -4.9262   -0.4732 H   0  0  0  0  0  0  0  0  0  0  0  0
   -0.8965    5.4755    0.2443 H   0  0  0  0  0  0  0  0  0  0  0  0
    0.8223   -5.2498   -1.0233 H   0  0  0  0  0  0  0  0  0  0  0  0
    0.5537    2.6943   -1.7837 H   0  0  0  0  0  0  0  0  0  0  0  0
    2.9703   -4.8176    1.7172 H   0  0  0  0  0  0  0  0  0  0  0  0
    5.2631   -2.5125    2.1565 H   0  0  0  0  0  0  0  0  0  0  0  0
    6.3848   -0.6467   -1.0956 H   0  0  0  0  0  0  0  0  0  0  0  0
    6.5032    1.8382    0.0650 H   0  0  0  0  0  0  0  0  0  0  0  0
    5.1389    4.2524   -1.4154 H   0  0  0  0  0  0  0  0  0  0  0  0
  1  2  1  0  0  0  0
  2  3  1  0  0  0  0
  3  4  1  0  0  0  0
  4  5  1  0  0  0  0
  5  6  1  0  0  0  0
  6  7  1  0  0  0  0
  2  8  1  0  0  0  0
  6  8  1  0  0  0  0
  6  9  1  0  0  0  0
  9 10  1  0  0  0  0
 10 11  1  0  0  0  0
  4 12  1  0  0  0  0
 10 12  1  0  0  0  0
  2 13  1  0  0  0  0
 10 13  1  0  0  0  0
  1 14  1  0  0  0  0
  1 15  1  0  0  0  0
  1 16  1  0  0  0  0
  3 17  1  0  0  0  0
  3 18  1  0  0  0  0
  4 19  1  0  0  0  0
  5 20  1  0  0  0  0
  5 21  1  0  0  0  0
  7 22  1  0  0  0  0
  7 23  1  0  0  0  0
  7 24  1  0  0  0  0
  8 25  1  0  0  0  0
  8 26  1  0  0  0  0
  9 27  1  0  0  0  0
  9 28  1  0  0  0  0
 11 29  1  0  0  0  0
 11 30  1  0  0  0  0
 12 31  1  0  0  0  0
 12 32  1  0  0  0  0
 13 33  1  0  0  0  0
 13 34  1  0  0  0  0
 35 36  1  0  0  0  0
 36 37  1  0  0  0  0
 35 38  1  0  0  0  0
 36 38  1  0  0  0  0
 37 39  1  0  0  0  0
 36 40  1  0  0  0  0
 37 40  1  0  0  0  0
 39 40  1  0  0  0  0
 40 41  1  0  0  0  0
 41 42  1  0  0  0  0
 39 43  1  0  0  0  0
 40 43  1  0  0  0  0
 42 44  1  0  0  0  0
 38 45  1  0  0  0  0
 38 46  1  0  0  0  0
 45 46  1  0  0  0  0
 39 47  1  0  0  0  0
 43 47  1  0  0  0  0
 46 47  1  0  0  0  0
 45 48  1  0  0  0  0
 46 48  1  0  0  0  0
 47 49  1  0  0  0  0
 43 50  1  0  0  0  0
 47 50  1  0  0  0  0
 49 50  1  0  0  0  0
 43 51  1  0  0  0  0
 50 51  1  0  0  0  0
 44 52  1  0  0  0  0
 51 52  1  0  0  0  0
 49 53  1  0  0  0  0
 50 53  1  0  0  0  0
 51 53  1  0  0  0  0
 52 54  1  0  0  0  0
 48 55  1  0  0  0  0
 48 56  1  0  0  0  0
 55 56  1  0  0  0  0
 49 57  1  0  0  0  0
 56 57  1  0  0  0  0
 55 58  1  0  0  0  0
 56 58  1  0  0  0  0
 57 59  1  0  0  0  0
 49 60  1  0  0  0  0
 53 60  1  0  0  0  0
 57 60  1  0  0  0  0
 59 60  1  0  0  0  0
 53 61  1  0  0  0  0
 60 61  1  0  0  0  0
 54 62  1  0  0  0  0
 61 62  1  0  0  0  0
 59 63  1  0  0  0  0
 60 63  1  0  0  0  0
 61 63  1  0  0  0  0
 62 64  1  0  0  0  0
 58 65  1  0  0  0  0
 58 66  1  0  0  0  0
 65 66  1  0  0  0  0
 59 67  1  0  0  0  0
 66 67  1  0  0  0  0
 65 68  1  0  0  0  0
 66 68  1  0  0  0  0
 67 69  1  0  0  0  0
 59 70  1  0  0  0  0
 67 70  1  0  0  0  0
 69 70  1  0  0  0  0
 63 71  1  0  0  0  0
 70 71  1  0  0  0  0
 63 72  1  0  0  0  0
 64 72  1  0  0  0  0
 71 72  1  0  0  0  0
 69 73  1  0  0  0  0
 70 73  1  0  0  0  0
 71 73  1  0  0  0  0
 71 74  1  0  0  0  0
 72 74  1  0  0  0  0
 35 75  1  0  0  0  0
 35 76  1  0  0  0  0
 36 76  1  0  0  0  0
 37 77  1  0  0  0  0
 41 78  1  0  0  0  0
 42 79  1  0  0  0  0
 44 80  1  0  0  0  0
 45 81  1  0  0  0  0
 54 82  1  0  0  0  0
 55 83  1  0  0  0  0
 64 84  1  0  0  0  0
 65 85  1  0  0  0  0
 68 86  1  0  0  0  0
 69 87  1  0  0  0  0
 73 88  1  0  0  0  0
 74 89  1  0  0  0  0
M  END
