 xtb: 6.7.1pre (5071a88)
          08312622043D

100153  0     0  0            999 V2000
    5.2318    0.1724    6.8310 C   0  0  0  0  0  0  0  0  0  0  0  0
    4.2994   -0.8414    6.1862 C   0  0  0  0  0  0  0  0  0  0  0  0
    3.4035   -1.4656    7.1557 N   0  0  0  0  0  0  0  0  0  0  0  0
    3.9065   -2.6064    7.8985 C   0  0  0  0  0  0  0  0  0  0  0  0
    2.2249   -0.8572    7.5800 C   0  0  0  0  0  0  0  0  0  0  0  0
    1.5280   -1.2973    8.4891 O   0  0  0  0  0  0  0  0  0  0  0  0
    1.9412    0.3023    6.8589 O   0  0  0  0  0  0  0  0  0  0  0  0
    0.7682    0.9984    7.1890 C   0  0  0  0  0  0  0  0  0  0  0  0
    0.9020    2.3384    7.5407 C   0  0  0  0  0  0  0  0  0  0  0  0
   -0.2385    3.0798    7.8323 C   0  0  0  0  0  0  0  0  0  0  0  0
   -1.4987    2.4802    7.7533 C   0  0  0  0  0  0  0  0  0  0  0  0
   -1.6465    1.1315    7.3709 C   0  0  0  0  0  0  0  0  0  0  0  0
   -3.0555    0.5342    7.3150 C   0  0  0  0  0  0  0  0  0  0  0  0
   -3.1655   -0.7559    6.4817 C   0  0  0  0  0  0  0  0  0  0  0  0
   -3.6451    0.4472    8.6710 N   0  0  0  0  0  0  0  0  0  0  0  0
   -3.0256   -0.5684    9.5224 C   0  0  0  0  0  0  0  0  0  0  0  0
   -5.0957    0.2796    8.6463 C   0  0  0  0  0  0  0  0  0  0  0  0
   -0.4873    0.3954    7.0831 C   0  0  0  0  0  0  0  0  0  0  0  0
    4.6694    0.9717    7.3242 H   0  0  0  0  0  0  0  0  0  0  0  0
    5.8794    0.6265    6.0748 H   0  0  0  0  0  0  0  0  0  0  0  0
    5.8690   -0.3009    7.5848 H   0  0  0  0  0  0  0  0  0  0  0  0
    4.8776   -1.6282    5.6892 H   0  0  0  0  0  0  0  0  0  0  0  0
    3.7062   -0.3456    5.4104 H   0  0  0  0  0  0  0  0  0  0  0  0
    3.1199   -3.0825    8.4901 H   0  0  0  0  0  0  0  0  0  0  0  0
    4.3097   -3.3425    7.1971 H   0  0  0  0  0  0  0  0  0  0  0  0
    4.6984   -2.2687    8.5730 H   0  0  0  0  0  0  0  0  0  0  0  0
    1.8836    2.7977    7.5969 H   0  0  0  0  0  0  0  0  0  0  0  0
   -0.1522    4.1218    8.1277 H   0  0  0  0  0  0  0  0  0  0  0  0
   -2.3813    3.0665    8.0045 H   0  0  0  0  0  0  0  0  0  0  0  0
   -3.6381    1.2824    6.7563 H   0  0  0  0  0  0  0  0  0  0  0  0
   -2.6317   -1.5968    6.9358 H   0  0  0  0  0  0  0  0  0  0  0  0
   -4.2094   -1.0568    6.3477 H   0  0  0  0  0  0  0  0  0  0  0  0
   -2.7486   -0.6033    5.4792 H   0  0  0  0  0  0  0  0  0  0  0  0
   -3.2118   -1.5870    9.1659 H   0  0  0  0  0  0  0  0  0  0  0  0
   -3.4211   -0.4957   10.5422 H   0  0  0  0  0  0  0  0  0  0  0  0
   -1.9442   -0.4222    9.6080 H   0  0  0  0  0  0  0  0  0  0  0  0
   -5.4025   -0.6977    8.2591 H   0  0  0  0  0  0  0  0  0  0  0  0
   -5.5071    0.3845    9.6567 H   0  0  0  0  0  0  0  0  0  0  0  0
   -5.5690    1.0586    8.0385 H   0  0  0  0  0  0  0  0  0  0  0  0
   -0.5435   -0.6494    6.7957 H   0  0  0  0  0  0  0  0  0  0  0  0
   -6.3511   -2.8545   -0.3396 B   0  0  0  0  0  0  0  0  0  0  0  0
   -3.8632   -3.4276    0.8712 B   0  0  0  0  0  0  0  0  0  0  0  0
   -1.0552   -4.1651    1.9793 B   0  0  0  0  0  0  0  0  0  0  0  0
    1.6853   -4.2318    1.3549 B   0  0  0  0  0  0  0  0  0  0  0  0
    2.9703   -3.6923    0.6219 B   0  0  0  0  0  0  0  0  0  0  0  0
    5.9076   -3.8486   -0.3800 B   0  0  0  0  0  0  0  0  0  0  0  0
   -4.7612   -2.3307   -0.4078 B   0  0  0  0  0  0  0  0  0  0  0  0
   -2.6199   -2.2111    0.8442 B   0  0  0  0  0  0  0  0  0  0  0  0
   -1.2327   -2.3911    1.7792 B   0  0  0  0  0  0  0  0  0  0  0  0
    0.2814   -3.1446    1.2586 B   0  0  0  0  0  0  0  0  0  0  0  0
    3.1280   -2.1353    0.0337 B   0  0  0  0  0  0  0  0  0  0  0  0
    5.2824   -2.5807   -1.1427 B   0  0  0  0  0  0  0  0  0  0  0  0
   -4.3827   -1.0545   -1.3461 B   0  0  0  0  0  0  0  0  0  0  0  0
   -3.1924   -1.2685   -0.2398 B   0  0  0  0  0  0  0  0  0  0  0  0
   -0.7667   -0.9151    2.1471 B   0  0  0  0  0  0  0  0  0  0  0  0
    0.4341   -1.5098    0.8825 B   0  0  0  0  0  0  0  0  0  0  0  0
    4.2603   -1.2719   -0.6057 B   0  0  0  0  0  0  0  0  0  0  0  0
    6.8452   -2.4756   -0.8065 B   0  0  0  0  0  0  0  0  0  0  0  0
   -5.0072   -0.6437   -2.8496 B   0  0  0  0  0  0  0  0  0  0  0  0
   -3.1952    0.1543   -0.9257 B   0  0  0  0  0  0  0  0  0  0  0  0
   -0.9469    0.6233    2.2104 B   0  0  0  0  0  0  0  0  0  0  0  0
    0.0016   -0.0204    0.9084 B   0  0  0  0  0  0  0  0  0  0  0  0
    4.8754    0.2242   -0.5476 B   0  0  0  0  0  0  0  0  0  0  0  0
    5.8786   -1.0664   -1.1306 B   0  0  0  0  0  0  0  0  0  0  0  0
   -5.7672    0.8535   -2.9176 B   0  0  0  0  0  0  0  0  0  0  0  0
   -2.8971    1.6282   -0.7083 B   0  0  0  0  0  0  0  0  0  0  0  0
   -1.2399    2.1332    2.0889 B   0  0  0  0  0  0  0  0  0  0  0  0
    0.1883    1.5499    1.0540 B   0  0  0  0  0  0  0  0  0  0  0  0
    4.2581    1.5841    0.0647 B   0  0  0  0  0  0  0  0  0  0  0  0
    6.3075    0.4397   -1.6258 B   0  0  0  0  0  0  0  0  0  0  0  0
   -5.7341    1.7554   -1.4938 B   0  0  0  0  0  0  0  0  0  0  0  0
   -3.3469    2.9740   -0.1746 B   0  0  0  0  0  0  0  0  0  0  0  0
   -1.6646    3.6160    1.7973 B   0  0  0  0  0  0  0  0  0  0  0  0
   -0.0590    3.1640    1.3235 B   0  0  0  0  0  0  0  0  0  0  0  0
    2.9656    2.2589    0.6844 B   0  0  0  0  0  0  0  0  0  0  0  0
    5.7919    1.6725   -0.6985 B   0  0  0  0  0  0  0  0  0  0  0  0
   -6.6389    2.8000   -0.8422 B   0  0  0  0  0  0  0  0  0  0  0  0
   -4.4746    3.8873    0.5879 B   0  0  0  0  0  0  0  0  0  0  0  0
   -1.7771    5.1752    1.2154 B   0  0  0  0  0  0  0  0  0  0  0  0
    1.1754    4.4066    1.3290 B   0  0  0  0  0  0  0  0  0  0  0  0
    2.5938    3.9229    0.8796 B   0  0  0  0  0  0  0  0  0  0  0  0
    5.3509    2.9860   -0.0541 B   0  0  0  0  0  0  0  0  0  0  0  0
   -5.3190   -3.6348    0.4165 B   0  0  0  0  0  0  0  0  0  0  0  0
   -2.4877   -3.6329    1.6055 B   0  0  0  0  0  0  0  0  0  0  0  0
    0.3596   -4.7213    1.9063 B   0  0  0  0  0  0  0  0  0  0  0  0
    1.7215   -2.4162    0.7345 B   0  0  0  0  0  0  0  0  0  0  0  0
    4.3387   -3.4800   -0.0729 B   0  0  0  0  0  0  0  0  0  0  0  0
   -5.0953    2.8472   -0.3735 B   0  0  0  0  0  0  0  0  0  0  0  0
   -3.0345    4.3187    0.9326 B   0  0  0  0  0  0  0  0  0  0  0  0
   -0.2869    4.8951    1.4426 B   0  0  0  0  0  0  0  0  0  0  0  0
    1.4616    2.5482    0.9924 B   0  0  0  0  0  0  0  0  0  0  0  0
    4.0784    3.6198    0.5106 B   0  0  0  0  0  0  0  0  0  0  0  0
   -4.5957    0.5913   -1.8415 B   0  0  0  0  0  0  0  0  0  0  0  0
   -7.3684   -2.5027   -0.8103 H   0  0  0  0  0  0  0  0  0  0  0  0
   -4.9591   -1.3760   -3.7739 H   0  0  0  0  0  0  0  0  0  0  0  0
   -6.3246    1.2608   -3.8715 H   0  0  0  0  0  0  0  0  0  0  0  0
   -7.6134    3.4017   -0.5976 H   0  0  0  0  0  0  0  0  0  0  0  0
    6.3612   -4.9354   -0.3602 H   0  0  0  0  0  0  0  0  0  0  0  0
    8.0163   -2.4682   -0.9061 H   0  0  0  0  0  0  0  0  0  0  0  0
    6.9392    0.6146   -2.6128 H   0  0  0  0  0  0  0  0  0  0  0  0
  1  2  1  0  0  0  0
  2  3  1  0  0  0  0
  3  4  1  0  0  0  0
  3  5  1  0  0  0  0
  5  6  2  0  0  0  0
  5  7  1  0  0  0  0
  7  8  1  0  0  0  0
  8  9  4  0  0  0  0
  9 10  4  0  0  0  0
 10 11  4  0  0  0  0
 11 12  4  0  0  0  0
 12 13  1  0  0  0  0
 13 14  1  0  0  0  0
 13 15  1  0  0  0  0
 15 16  1  0  0  0  0
 15 17  1  0  0  0  0
  8 18  4  0  0  0  0
 12 18  4  0  0  0  0
  1 19  1  0  0  0  0
  1 20  1  0  0  0  0
  1 21  1  0  0  0  0
  2 22  1  0  0  0  0
  2 23  1  0  0  0  0
  4 24  1  0  0  0  0
  4 25  1  0  0  0  0
  4 26  1  0  0  0  0
  9 27  1  0  0  0  0
 10 28  1  0  0  0  0
 11 29  1  0  0  0  0
 13 30  1  0  0  0  0
 14 31  1  0  0  0  0
 14 32  1  0  0  0  0
 14 33  1  0  0  0  0
 16 34  1  0  0  0  0
 16 35  1  0  0  0  0
 16 36  1  0  0  0  0
 17 37  1  0  0  0  0
 17 38  1  0  0  0  0
 17 39  1  0  0  0  0
 18 40  1  0  0  0  0
 44 45  1  0  0  0  0
 41 47  1  0  0  0  0
 42 47  1  0  0  0  0
 42 48  1  0  0  0  0
 43 49  1  0  0  0  0
 48 49  1  0  0  0  0
 43 50  1  0  0  0  0
 44 50  1  0  0  0  0
 49 50  1  0  0  0  0
 45 51  1  0  0  0  0
 46 52  1  0  0  0  0
 47 53  1  0  0  0  0
 47 54  1  0  0  0  0
 48 54  1  0  0  0  0
 53 54  1  0  0  0  0
 49 55  1  0  0  0  0
 50 56  1  0  0  0  0
 55 56  1  0  0  0  0
 51 57  1  0  0  0  0
 52 57  1  0  0  0  0
 46 58  1  0  0  0  0
 52 58  1  0  0  0  0
 53 59  1  0  0  0  0
 53 60  1  0  0  0  0
 54 60  1  0  0  0  0
 55 61  1  0  0  0  0
 55 62  1  0  0  0  0
 56 62  1  0  0  0  0
 61 62  1  0  0  0  0
 57 63  1  0  0  0  0
 52 64  1  0  0  0  0
 57 64  1  0  0  0  0
 58 64  1  0  0  0  0
 63 64  1  0  0  0  0
 59 65  1  0  0  0  0
 60 66  1  0  0  0  0
 61 67  1  0  0  0  0
 61 68  1  0  0  0  0
 62 68  1  0  0  0  0
 67 68  1  0  0  0  0
 63 69  1  0  0  0  0
 63 70  1  0  0  0  0
 64 70  1  0  0  0  0
 65 71  1  0  0  0  0
 66 72  2  0  0  0  0
 67 73  1  0  0  0  0
 67 74  1  0  0  0  0
 68 74  1  0  0  0  0
 73 74  1  0  0  0  0
 69 75  1  0  0  0  0
 63 76  1  0  0  0  0
 69 76  1  0  0  0  0
 70 76  1  0  0  0  0
 71 77  1  0  0  0  0
 72 78  1  0  0  0  0
 73 79  1  0  0  0  0
 74 80  1  0  0  0  0
 75 81  1  0  0  0  0
 80 81  1  0  0  0  0
 69 82  1  0  0  0  0
 76 82  1  0  0  0  0
 41 83  2  0  0  0  0
 42 83  1  0  0  0  0
 47 83  1  0  0  0  0
 42 84  1  0  0  0  0
 43 84  1  0  0  0  0
 48 84  1  0  0  0  0
 49 84  1  0  0  0  0
 43 85  1  0  0  0  0
 44 85  1  0  0  0  0
 50 85  1  0  0  0  0
 44 86  1  0  0  0  0
 45 86  1  0  0  0  0
 50 86  1  0  0  0  0
 51 86  1  0  0  0  0
 56 86  1  0  0  0  0
 45 87  1  0  0  0  0
 46 87  1  0  0  0  0
 51 87  1  0  0  0  0
 52 87  1  0  0  0  0
 71 88  1  0  0  0  0
 72 88  1  0  0  0  0
 77 88  1  0  0  0  0
 78 88  1  0  0  0  0
 72 89  1  0  0  0  0
 73 89  1  0  0  0  0
 78 89  1  0  0  0  0
 79 89  1  0  0  0  0
 73 90  1  0  0  0  0
 74 90  1  0  0  0  0
 79 90  1  0  0  0  0
 80 90  1  0  0  0  0
 68 91  1  0  0  0  0
 74 91  1  0  0  0  0
 75 91  1  0  0  0  0
 80 91  1  0  0  0  0
 81 91  1  0  0  0  0
 69 92  1  0  0  0  0
 75 92  1  0  0  0  0
 81 92  1  0  0  0  0
 82 92  1  0  0  0  0
 53 93  1  0  0  0  0
 59 93  1  0  0  0  0
 60 93  1  0  0  0  0
 65 93  1  0  0  0  0
 71 93  1  0  0  0  0
 41 94  1  0  0  0  0
 59 95  1  0  0  0  0
 65 96  1  0  0  0  0
 77 97  1  0  0  0  0
 46 98  1  0  0  0  0
 58 99  1  0  0  0  0
 70100  1  0  0  0  0
M  END
