 xtb: 6.7.1pre (5071a88)
          09012616343D

100140  0     0  0            999 V2000
    5.2318    0.1724    6.3691 C   0  0  0  0  0  0  0  0  0  0  0  0
    4.2994   -0.8414    5.7243 C   0  0  0  0  0  0  0  0  0  0  0  0
    3.4035   -1.4656    6.6937 N   0  0  0  0  0  0  0  0  0  0  0  0
    3.9065   -2.6064    7.4365 C   0  0  0  0  0  0  0  0  0  0  0  0
    2.2249   -0.8572    7.1181 C   0  0  0  0  0  0  0  0  0  0  0  0
    1.5280   -1.2973    8.0272 O   0  0  0  0  0  0  0  0  0  0  0  0
    1.9412    0.3023    6.3969 O   0  0  0  0  0  0  0  0  0  0  0  0
    0.7682    0.9984    6.7271 C   0  0  0  0  0  0  0  0  0  0  0  0
    0.9020    2.3384    7.0788 C   0  0  0  0  0  0  0  0  0  0  0  0
   -0.2385    3.0798    7.3704 C   0  0  0  0  0  0  0  0  0  0  0  0
   -1.4987    2.4802    7.2914 C   0  0  0  0  0  0  0  0  0  0  0  0
   -1.6465    1.1315    6.9090 C   0  0  0  0  0  0  0  0  0  0  0  0
   -3.0555    0.5342    6.8530 C   0  0  0  0  0  0  0  0  0  0  0  0
   -3.1655   -0.7559    6.0198 C   0  0  0  0  0  0  0  0  0  0  0  0
   -3.6451    0.4472    8.2091 N   0  0  0  0  0  0  0  0  0  0  0  0
   -3.0256   -0.5684    9.0604 C   0  0  0  0  0  0  0  0  0  0  0  0
   -5.0957    0.2796    8.1844 C   0  0  0  0  0  0  0  0  0  0  0  0
   -0.4873    0.3954    6.6211 C   0  0  0  0  0  0  0  0  0  0  0  0
    4.6694    0.9717    6.8623 H   0  0  0  0  0  0  0  0  0  0  0  0
    5.8794    0.6265    5.6128 H   0  0  0  0  0  0  0  0  0  0  0  0
    5.8690   -0.3009    7.1229 H   0  0  0  0  0  0  0  0  0  0  0  0
    4.8776   -1.6282    5.2273 H   0  0  0  0  0  0  0  0  0  0  0  0
    3.7062   -0.3456    4.9485 H   0  0  0  0  0  0  0  0  0  0  0  0
    3.1199   -3.0825    8.0282 H   0  0  0  0  0  0  0  0  0  0  0  0
    4.3097   -3.3425    6.7351 H   0  0  0  0  0  0  0  0  0  0  0  0
    4.6984   -2.2687    8.1111 H   0  0  0  0  0  0  0  0  0  0  0  0
    1.8836    2.7977    7.1350 H   0  0  0  0  0  0  0  0  0  0  0  0
   -0.1522    4.1218    7.6658 H   0  0  0  0  0  0  0  0  0  0  0  0
   -2.3813    3.0665    7.5426 H   0  0  0  0  0  0  0  0  0  0  0  0
   -3.6381    1.2824    6.2944 H   0  0  0  0  0  0  0  0  0  0  0  0
   -2.6317   -1.5968    6.4739 H   0  0  0  0  0  0  0  0  0  0  0  0
   -4.2094   -1.0568    5.8857 H   0  0  0  0  0  0  0  0  0  0  0  0
   -2.7486   -0.6033    5.0173 H   0  0  0  0  0  0  0  0  0  0  0  0
   -3.2118   -1.5870    8.7040 H   0  0  0  0  0  0  0  0  0  0  0  0
   -3.4211   -0.4957   10.0803 H   0  0  0  0  0  0  0  0  0  0  0  0
   -1.9442   -0.4222    9.1461 H   0  0  0  0  0  0  0  0  0  0  0  0
   -5.4025   -0.6977    7.7972 H   0  0  0  0  0  0  0  0  0  0  0  0
   -5.5071    0.3845    9.1948 H   0  0  0  0  0  0  0  0  0  0  0  0
   -5.5690    1.0586    7.5766 H   0  0  0  0  0  0  0  0  0  0  0  0
   -0.5435   -0.6494    6.3338 H   0  0  0  0  0  0  0  0  0  0  0  0
   -6.9256   -4.6511    0.2587 B   0  0  0  0  0  0  0  0  0  0  0  0
   -5.1098   -2.2493    0.3222 B   0  0  0  0  0  0  0  0  0  0  0  0
   -3.5915   -2.1814    0.2128 B   0  0  0  0  0  0  0  0  0  0  0  0
    0.9993   -2.8754    0.0638 B   0  0  0  0  0  0  0  0  0  0  0  0
    2.4759   -3.0122   -0.2709 B   0  0  0  0  0  0  0  0  0  0  0  0
    5.2994   -3.8314   -0.6672 B   0  0  0  0  0  0  0  0  0  0  0  0
    6.3183   -4.8359   -1.1558 B   0  0  0  0  0  0  0  0  0  0  0  0
   -6.4348   -3.1583    0.2864 B   0  0  0  0  0  0  0  0  0  0  0  0
   -6.7520   -1.6338    0.3164 B   0  0  0  0  0  0  0  0  0  0  0  0
   -2.0526   -2.3173    0.3349 B   0  0  0  0  0  0  0  0  0  0  0  0
   -0.4841   -2.4619    0.2574 B   0  0  0  0  0  0  0  0  0  0  0  0
    4.0184   -2.9011   -0.2872 B   0  0  0  0  0  0  0  0  0  0  0  0
    5.7532   -2.2815   -0.3028 B   0  0  0  0  0  0  0  0  0  0  0  0
    6.8301   -3.2288   -1.0929 B   0  0  0  0  0  0  0  0  0  0  0  0
   -7.6564   -0.2550    0.3431 B   0  0  0  0  0  0  0  0  0  0  0  0
   -6.0374   -0.1395    0.1913 B   0  0  0  0  0  0  0  0  0  0  0  0
   -4.4316   -0.5357    0.2239 B   0  0  0  0  0  0  0  0  0  0  0  0
   -2.7379   -0.6604    0.3290 B   0  0  0  0  0  0  0  0  0  0  0  0
   -1.0518   -0.9157    0.6419 B   0  0  0  0  0  0  0  0  0  0  0  0
    0.5171   -1.1722    0.7257 B   0  0  0  0  0  0  0  0  0  0  0  0
    3.1231   -1.4831   -0.0635 B   0  0  0  0  0  0  0  0  0  0  0  0
    4.7001   -1.1340    0.3402 B   0  0  0  0  0  0  0  0  0  0  0  0
    6.2667   -0.7872    0.2517 B   0  0  0  0  0  0  0  0  0  0  0  0
    7.6720   -0.3517    1.0327 B   0  0  0  0  0  0  0  0  0  0  0  0
   -6.9181    1.2121    0.1915 B   0  0  0  0  0  0  0  0  0  0  0  0
   -3.4184    0.7801    0.0809 B   0  0  0  0  0  0  0  0  0  0  0  0
   -1.6542    0.5326    0.1239 B   0  0  0  0  0  0  0  0  0  0  0  0
    1.8622   -0.4037    0.3246 B   0  0  0  0  0  0  0  0  0  0  0  0
    3.5847   -0.1504    0.7852 B   0  0  0  0  0  0  0  0  0  0  0  0
    6.9910    0.6111   -0.1068 B   0  0  0  0  0  0  0  0  0  0  0  0
    8.3074    1.0629    0.6316 B   0  0  0  0  0  0  0  0  0  0  0  0
   -7.6194    2.8040    0.2986 B   0  0  0  0  0  0  0  0  0  0  0  0
   -6.1238    2.5185   -0.1765 B   0  0  0  0  0  0  0  0  0  0  0  0
   -3.5886    2.3277   -0.2368 B   0  0  0  0  0  0  0  0  0  0  0  0
   -0.9061    1.8195   -0.4198 B   0  0  0  0  0  0  0  0  0  0  0  0
    1.6234    1.0199   -0.4108 B   0  0  0  0  0  0  0  0  0  0  0  0
    3.0108    1.3090    0.5297 B   0  0  0  0  0  0  0  0  0  0  0  0
    6.3729    1.8582   -0.9160 B   0  0  0  0  0  0  0  0  0  0  0  0
   -6.5277    4.0456   -0.1608 B   0  0  0  0  0  0  0  0  0  0  0  0
   -4.8736    3.4948   -0.3884 B   0  0  0  0  0  0  0  0  0  0  0  0
   -3.4155    3.8801   -0.6064 B   0  0  0  0  0  0  0  0  0  0  0  0
   -2.0235    3.2206   -0.6767 B   0  0  0  0  0  0  0  0  0  0  0  0
   -0.4974    3.2796   -0.8970 B   0  0  0  0  0  0  0  0  0  0  0  0
    0.7107    2.3324   -0.7457 B   0  0  0  0  0  0  0  0  0  0  0  0
    2.3353    2.4781   -0.4754 B   0  0  0  0  0  0  0  0  0  0  0  0
    3.8161    2.6195   -0.0941 B   0  0  0  0  0  0  0  0  0  0  0  0
    5.3698    2.8646   -0.1489 B   0  0  0  0  0  0  0  0  0  0  0  0
    6.0551    4.0800    0.6312 B   0  0  0  0  0  0  0  0  0  0  0  0
    6.2041    5.1477    0.1463 H   0  0  0  0  0  0  0  0  0  0  0  0
    8.2184   -1.1210    1.7268 H   0  0  0  0  0  0  0  0  0  0  0  0
    6.6224    1.9818   -2.0674 H   0  0  0  0  0  0  0  0  0  0  0  0
   -7.0900   -5.2506   -0.7538 H   0  0  0  0  0  0  0  0  0  0  0  0
   -6.7912    5.1815   -0.2852 H   0  0  0  0  0  0  0  0  0  0  0  0
    9.1569    1.8466    0.7900 H   0  0  0  0  0  0  0  0  0  0  0  0
   -8.8277   -0.3758    0.3286 H   0  0  0  0  0  0  0  0  0  0  0  0
    6.7839   -5.8690   -1.4465 H   0  0  0  0  0  0  0  0  0  0  0  0
   -8.7247    3.0012    0.6388 H   0  0  0  0  0  0  0  0  0  0  0  0
    7.8918   -2.8835   -1.4737 H   0  0  0  0  0  0  0  0  0  0  0  0
    6.4282    3.9996    1.7485 H   0  0  0  0  0  0  0  0  0  0  0  0
   -7.2249   -5.2823    1.2187 H   0  0  0  0  0  0  0  0  0  0  0  0
  1  2  1  0  0  0  0
  2  3  1  0  0  0  0
  3  4  1  0  0  0  0
  3  5  1  0  0  0  0
  5  6  2  0  0  0  0
  5  7  1  0  0  0  0
  7  8  1  0  0  0  0
  8  9  4  0  0  0  0
  9 10  4  0  0  0  0
 10 11  4  0  0  0  0
 11 12  4  0  0  0  0
 12 13  1  0  0  0  0
 13 14  1  0  0  0  0
 13 15  1  0  0  0  0
 15 16  1  0  0  0  0
 15 17  1  0  0  0  0
  8 18  4  0  0  0  0
 12 18  4  0  0  0  0
  1 19  1  0  0  0  0
  1 20  1  0  0  0  0
  1 21  1  0  0  0  0
  2 22  1  0  0  0  0
  2 23  1  0  0  0  0
  4 24  1  0  0  0  0
  4 25  1  0  0  0  0
  4 26  1  0  0  0  0
  9 27  1  0  0  0  0
 10 28  1  0  0  0  0
 11 29  1  0  0  0  0
 13 30  1  0  0  0  0
 14 31  1  0  0  0  0
 14 32  1  0  0  0  0
 14 33  1  0  0  0  0
 16 34  1  0  0  0  0
 16 35  1  0  0  0  0
 16 36  1  0  0  0  0
 17 37  1  0  0  0  0
 17 38  1  0  0  0  0
 17 39  1  0  0  0  0
 18 40  1  0  0  0  0
 42 43  1  0  0  0  0
 44 45  2  0  0  0  0
 46 47  2  0  0  0  0
 41 48  1  0  0  0  0
 42 48  1  0  0  0  0
 42 49  1  0  0  0  0
 48 49  1  0  0  0  0
 43 50  1  0  0  0  0
 44 51  1  0  0  0  0
 50 51  1  0  0  0  0
 45 52  1  0  0  0  0
 46 52  1  0  0  0  0
 46 53  1  0  0  0  0
 52 53  1  0  0  0  0
 46 54  1  0  0  0  0
 47 54  1  0  0  0  0
 53 54  1  0  0  0  0
 49 55  1  0  0  0  0
 49 56  1  0  0  0  0
 55 56  1  0  0  0  0
 42 57  1  0  0  0  0
 43 57  1  0  0  0  0
 56 57  1  0  0  0  0
 43 58  1  0  0  0  0
 50 58  1  0  0  0  0
 57 58  1  0  0  0  0
 50 59  1  0  0  0  0
 51 59  1  0  0  0  0
 58 59  1  0  0  0  0
 44 60  1  0  0  0  0
 51 60  1  0  0  0  0
 59 60  1  0  0  0  0
 45 61  1  0  0  0  0
 52 61  1  0  0  0  0
 52 62  1  0  0  0  0
 53 62  1  0  0  0  0
 61 62  1  0  0  0  0
 53 63  1  0  0  0  0
 62 63  1  0  0  0  0
 63 64  1  0  0  0  0
 55 65  1  0  0  0  0
 56 65  1  0  0  0  0
 57 66  1  0  0  0  0
 58 66  1  0  0  0  0
 58 67  1  0  0  0  0
 59 67  1  0  0  0  0
 66 67  1  0  0  0  0
 60 68  1  0  0  0  0
 61 68  1  0  0  0  0
 61 69  1  0  0  0  0
 62 69  1  0  0  0  0
 68 69  1  0  0  0  0
 63 70  1  0  0  0  0
 64 70  1  0  0  0  0
 64 71  1  0  0  0  0
 70 71  1  0  0  0  0
 65 72  1  0  0  0  0
 65 73  1  0  0  0  0
 72 73  1  0  0  0  0
 66 74  1  0  0  0  0
 67 75  1  0  0  0  0
 68 76  1  0  0  0  0
 69 77  1  0  0  0  0
 76 77  1  0  0  0  0
 70 78  1  0  0  0  0
 72 79  1  0  0  0  0
 73 79  1  0  0  0  0
 73 80  1  0  0  0  0
 74 80  1  0  0  0  0
 79 80  1  0  0  0  0
 74 81  1  0  0  0  0
 80 81  1  0  0  0  0
 74 82  1  0  0  0  0
 75 82  1  0  0  0  0
 81 82  1  0  0  0  0
 75 83  1  0  0  0  0
 82 83  1  0  0  0  0
 75 84  1  0  0  0  0
 76 84  1  0  0  0  0
 83 84  1  0  0  0  0
 76 85  1  0  0  0  0
 77 85  1  0  0  0  0
 84 85  1  0  0  0  0
 77 86  1  0  0  0  0
 85 86  1  0  0  0  0
 78 87  1  0  0  0  0
 86 87  1  0  0  0  0
 87 88  1  0  0  0  0
 88 89  1  0  0  0  0
 64 90  1  0  0  0  0
 78 91  1  0  0  0  0
 41 92  1  0  0  0  0
 79 93  1  0  0  0  0
 71 94  1  0  0  0  0
 55 95  1  0  0  0  0
 47 96  1  0  0  0  0
 72 97  1  0  0  0  0
 54 98  1  0  0  0  0
 88 99  1  0  0  0  0
 41100  1  0  0  0  0
M  END
