 xtb: 6.7.1pre (5071a88)
          08312620243D

100129  0     0  0            999 V2000
    5.2318    0.1724    2.8413 C   0  0  0  0  0  0  0  0  0  0  0  0
    4.2994   -0.8414    2.1965 C   0  0  0  0  0  0  0  0  0  0  0  0
    3.4035   -1.4656    3.1660 N   0  0  0  0  0  0  0  0  0  0  0  0
    3.9065   -2.6064    3.9088 C   0  0  0  0  0  0  0  0  0  0  0  0
    2.2249   -0.8572    3.5903 C   0  0  0  0  0  0  0  0  0  0  0  0
    1.5280   -1.2973    4.4994 O   0  0  0  0  0  0  0  0  0  0  0  0
    1.9412    0.3023    2.8691 O   0  0  0  0  0  0  0  0  0  0  0  0
    0.7682    0.9984    3.1993 C   0  0  0  0  0  0  0  0  0  0  0  0
    0.9020    2.3384    3.5510 C   0  0  0  0  0  0  0  0  0  0  0  0
   -0.2385    3.0798    3.8426 C   0  0  0  0  0  0  0  0  0  0  0  0
   -1.4987    2.4802    3.7636 C   0  0  0  0  0  0  0  0  0  0  0  0
   -1.6465    1.1315    3.3812 C   0  0  0  0  0  0  0  0  0  0  0  0
   -3.0555    0.5342    3.3252 C   0  0  0  0  0  0  0  0  0  0  0  0
   -3.1655   -0.7559    2.4920 C   0  0  0  0  0  0  0  0  0  0  0  0
   -3.6451    0.4472    4.6813 N   0  0  0  0  0  0  0  0  0  0  0  0
   -3.0256   -0.5684    5.5326 C   0  0  0  0  0  0  0  0  0  0  0  0
   -5.0957    0.2796    4.6566 C   0  0  0  0  0  0  0  0  0  0  0  0
   -0.4873    0.3954    3.0933 C   0  0  0  0  0  0  0  0  0  0  0  0
    4.6694    0.9717    3.3345 H   0  0  0  0  0  0  0  0  0  0  0  0
    5.8794    0.6265    2.0851 H   0  0  0  0  0  0  0  0  0  0  0  0
    5.8690   -0.3009    3.5951 H   0  0  0  0  0  0  0  0  0  0  0  0
    4.8776   -1.6282    1.6995 H   0  0  0  0  0  0  0  0  0  0  0  0
    3.7062   -0.3456    1.4207 H   0  0  0  0  0  0  0  0  0  0  0  0
    3.1199   -3.0825    4.5004 H   0  0  0  0  0  0  0  0  0  0  0  0
    4.3097   -3.3425    3.2074 H   0  0  0  0  0  0  0  0  0  0  0  0
    4.6984   -2.2687    4.5833 H   0  0  0  0  0  0  0  0  0  0  0  0
    1.8836    2.7977    3.6072 H   0  0  0  0  0  0  0  0  0  0  0  0
   -0.1522    4.1218    4.1380 H   0  0  0  0  0  0  0  0  0  0  0  0
   -2.3813    3.0665    4.0148 H   0  0  0  0  0  0  0  0  0  0  0  0
   -3.6381    1.2824    2.7666 H   0  0  0  0  0  0  0  0  0  0  0  0
   -2.6317   -1.5968    2.9461 H   0  0  0  0  0  0  0  0  0  0  0  0
   -4.2094   -1.0568    2.3579 H   0  0  0  0  0  0  0  0  0  0  0  0
   -2.7486   -0.6033    1.4895 H   0  0  0  0  0  0  0  0  0  0  0  0
   -3.2118   -1.5870    5.1762 H   0  0  0  0  0  0  0  0  0  0  0  0
   -3.4211   -0.4957    6.5525 H   0  0  0  0  0  0  0  0  0  0  0  0
   -1.9442   -0.4222    5.6183 H   0  0  0  0  0  0  0  0  0  0  0  0
   -5.4025   -0.6977    4.2694 H   0  0  0  0  0  0  0  0  0  0  0  0
   -5.5071    0.3845    5.6670 H   0  0  0  0  0  0  0  0  0  0  0  0
   -5.5690    1.0586    4.0488 H   0  0  0  0  0  0  0  0  0  0  0  0
   -0.5435   -0.6494    2.8060 H   0  0  0  0  0  0  0  0  0  0  0  0
   -7.5000   -4.5000    0.0000 B   0  0  0  0  0  0  0  0  0  0  0  0
   -4.5000   -4.5000    0.0000 B   0  0  0  0  0  0  0  0  0  0  0  0
   -1.5000   -4.5000    0.0000 B   0  0  0  0  0  0  0  0  0  0  0  0
    1.5000   -4.5000    0.0000 B   0  0  0  0  0  0  0  0  0  0  0  0
    4.5000   -4.5000    0.0000 B   0  0  0  0  0  0  0  0  0  0  0  0
    7.5000   -4.5000    0.0000 B   0  0  0  0  0  0  0  0  0  0  0  0
   -7.5000   -3.0000    0.0000 B   0  0  0  0  0  0  0  0  0  0  0  0
   -4.5000   -3.0000    0.0000 B   0  0  0  0  0  0  0  0  0  0  0  0
   -1.5000   -3.0000    0.0000 B   0  0  0  0  0  0  0  0  0  0  0  0
    1.5000   -3.0000    0.0000 B   0  0  0  0  0  0  0  0  0  0  0  0
    4.5000   -3.0000    0.0000 B   0  0  0  0  0  0  0  0  0  0  0  0
    7.5000   -3.0000    0.0000 B   0  0  0  0  0  0  0  0  0  0  0  0
   -7.5000   -1.5000    0.0000 B   0  0  0  0  0  0  0  0  0  0  0  0
   -4.5000   -1.5000    0.0000 B   0  0  0  0  0  0  0  0  0  0  0  0
   -1.5000   -1.5000    0.0000 B   0  0  0  0  0  0  0  0  0  0  0  0
    1.5000   -1.5000    0.0000 B   0  0  0  0  0  0  0  0  0  0  0  0
    4.5000   -1.5000    0.0000 B   0  0  0  0  0  0  0  0  0  0  0  0
    7.5000   -1.5000    0.0000 B   0  0  0  0  0  0  0  0  0  0  0  0
   -7.5000    0.0000    0.0000 B   0  0  0  0  0  0  0  0  0  0  0  0
   -4.5000    0.0000    0.0000 B   0  0  0  0  0  0  0  0  0  0  0  0
   -1.5000    0.0000    0.0000 B   0  0  0  0  0  0  0  0  0  0  0  0
    1.5000    0.0000    0.0000 B   0  0  0  0  0  0  0  0  0  0  0  0
    4.5000    0.0000    0.0000 B   0  0  0  0  0  0  0  0  0  0  0  0
    7.5000    0.0000    0.0000 B   0  0  0  0  0  0  0  0  0  0  0  0
   -7.5000    1.5000    0.0000 B   0  0  0  0  0  0  0  0  0  0  0  0
   -4.5000    1.5000    0.0000 B   0  0  0  0  0  0  0  0  0  0  0  0
   -1.5000    1.5000    0.0000 B   0  0  0  0  0  0  0  0  0  0  0  0
    1.5000    1.5000    0.0000 B   0  0  0  0  0  0  0  0  0  0  0  0
    4.5000    1.5000    0.0000 B   0  0  0  0  0  0  0  0  0  0  0  0
    7.5000    1.5000    0.0000 B   0  0  0  0  0  0  0  0  0  0  0  0
   -7.5000    3.0000    0.0000 B   0  0  0  0  0  0  0  0  0  0  0  0
   -4.5000    3.0000    0.0000 B   0  0  0  0  0  0  0  0  0  0  0  0
   -1.5000    3.0000    0.0000 B   0  0  0  0  0  0  0  0  0  0  0  0
    1.5000    3.0000    0.0000 B   0  0  0  0  0  0  0  0  0  0  0  0
    4.5000    3.0000    0.0000 B   0  0  0  0  0  0  0  0  0  0  0  0
    7.5000    3.0000    0.0000 B   0  0  0  0  0  0  0  0  0  0  0  0
   -7.5000    4.5000    0.0000 B   0  0  0  0  0  0  0  0  0  0  0  0
   -4.5000    4.5000    0.0000 B   0  0  0  0  0  0  0  0  0  0  0  0
   -1.5000    4.5000    0.0000 B   0  0  0  0  0  0  0  0  0  0  0  0
    1.5000    4.5000    0.0000 B   0  0  0  0  0  0  0  0  0  0  0  0
    4.5000    4.5000    0.0000 B   0  0  0  0  0  0  0  0  0  0  0  0
    7.5000    4.5000    0.0000 B   0  0  0  0  0  0  0  0  0  0  0  0
   -6.0000   -3.7500    0.0000 B   0  0  0  0  0  0  0  0  0  0  0  0
   -3.0000   -3.7500    0.0000 B   0  0  0  0  0  0  0  0  0  0  0  0
    0.0000   -3.7500    0.0000 B   0  0  0  0  0  0  0  0  0  0  0  0
    3.0000   -3.7500    0.0000 B   0  0  0  0  0  0  0  0  0  0  0  0
    6.0000   -3.7500    0.0000 B   0  0  0  0  0  0  0  0  0  0  0  0
   -6.0000    3.7500    0.0000 B   0  0  0  0  0  0  0  0  0  0  0  0
   -3.0000    3.7500    0.0000 B   0  0  0  0  0  0  0  0  0  0  0  0
    0.0000    3.7500    0.0000 B   0  0  0  0  0  0  0  0  0  0  0  0
    3.0000    3.7500    0.0000 B   0  0  0  0  0  0  0  0  0  0  0  0
    6.0000    3.7500    0.0000 B   0  0  0  0  0  0  0  0  0  0  0  0
   -6.0000    0.0000    0.0000 B   0  0  0  0  0  0  0  0  0  0  0  0
   -8.6000   -4.5000    0.0000 H   0  0  0  0  0  0  0  0  0  0  0  0
   -8.6000   -1.5000    0.0000 H   0  0  0  0  0  0  0  0  0  0  0  0
   -8.6000    1.5000    0.0000 H   0  0  0  0  0  0  0  0  0  0  0  0
   -8.6000    4.5000    0.0000 H   0  0  0  0  0  0  0  0  0  0  0  0
    8.6000   -4.5000    0.0000 H   0  0  0  0  0  0  0  0  0  0  0  0
    8.6000   -1.5000    0.0000 H   0  0  0  0  0  0  0  0  0  0  0  0
    8.6000    1.5000    0.0000 H   0  0  0  0  0  0  0  0  0  0  0  0
  1  2  1  0  0  0  0
  2  3  1  0  0  0  0
  3  4  1  0  0  0  0
  3  5  4  0  0  0  0
  5  6  2  0  0  0  0
  5  7  1  0  0  0  0
  7  8  1  0  0  0  0
  8  9  4  0  0  0  0
  9 10  4  0  0  0  0
 10 11  4  0  0  0  0
 11 12  4  0  0  0  0
 12 13  1  0  0  0  0
 13 14  1  0  0  0  0
 13 15  1  0  0  0  0
 15 16  1  0  0  0  0
 15 17  1  0  0  0  0
  8 18  4  0  0  0  0
 12 18  4  0  0  0  0
  1 19  1  0  0  0  0
  1 20  1  0  0  0  0
  1 21  1  0  0  0  0
  2 22  1  0  0  0  0
  2 23  1  0  0  0  0
  4 24  1  0  0  0  0
  4 25  1  0  0  0  0
  4 26  1  0  0  0  0
  9 27  1  0  0  0  0
 10 28  1  0  0  0  0
 11 29  1  0  0  0  0
 13 30  1  0  0  0  0
 14 31  1  0  0  0  0
 14 32  1  0  0  0  0
 14 33  1  0  0  0  0
 16 34  1  0  0  0  0
 16 35  1  0  0  0  0
 16 36  1  0  0  0  0
 17 37  1  0  0  0  0
 17 38  1  0  0  0  0
 17 39  1  0  0  0  0
 18 40  1  0  0  0  0
 41 47  1  0  0  0  0
 42 48  1  0  0  0  0
 43 49  1  0  0  0  0
 44 50  1  0  0  0  0
 45 51  1  0  0  0  0
 46 52  1  0  0  0  0
 47 53  1  0  0  0  0
 48 54  1  0  0  0  0
 49 55  1  0  0  0  0
 50 56  1  0  0  0  0
 51 57  1  0  0  0  0
 52 58  1  0  0  0  0
 53 59  1  0  0  0  0
 54 60  1  0  0  0  0
 55 61  2  0  0  0  0
 56 62  2  0  0  0  0
 57 63  2  0  0  0  0
 58 64  1  0  0  0  0
 59 65  1  0  0  0  0
 60 66  1  0  0  0  0
 61 67  2  0  0  0  0
 62 68  2  0  0  0  0
 63 69  2  0  0  0  0
 64 70  2  0  0  0  0
 65 71  1  0  0  0  0
 66 72  1  0  0  0  0
 67 73  1  0  0  0  0
 68 74  1  0  0  0  0
 69 75  1  0  0  0  0
 70 76  1  0  0  0  0
 71 77  1  0  0  0  0
 72 78  1  0  0  0  0
 73 79  1  0  0  0  0
 74 80  1  0  0  0  0
 75 81  1  0  0  0  0
 76 82  2  0  0  0  0
 41 83  1  0  0  0  0
 42 83  1  0  0  0  0
 47 83  1  0  0  0  0
 48 83  1  0  0  0  0
 42 84  1  0  0  0  0
 43 84  1  0  0  0  0
 48 84  1  0  0  0  0
 49 84  1  0  0  0  0
 43 85  1  0  0  0  0
 44 85  1  0  0  0  0
 49 85  1  0  0  0  0
 50 85  1  0  0  0  0
 44 86  1  0  0  0  0
 45 86  1  0  0  0  0
 50 86  1  0  0  0  0
 51 86  1  0  0  0  0
 45 87  1  0  0  0  0
 46 87  1  0  0  0  0
 51 87  1  0  0  0  0
 52 87  1  0  0  0  0
 71 88  1  0  0  0  0
 72 88  1  0  0  0  0
 77 88  1  0  0  0  0
 78 88  1  0  0  0  0
 72 89  1  0  0  0  0
 73 89  1  0  0  0  0
 78 89  1  0  0  0  0
 79 89  1  0  0  0  0
 73 90  1  0  0  0  0
 74 90  1  0  0  0  0
 79 90  1  0  0  0  0
 80 90  1  0  0  0  0
 74 91  1  0  0  0  0
 75 91  1  0  0  0  0
 80 91  1  0  0  0  0
 81 91  1  0  0  0  0
 75 92  1  0  0  0  0
 76 92  1  0  0  0  0
 81 92  1  0  0  0  0
 82 92  1  0  0  0  0
 53 93  1  0  0  0  0
 54 93  1  0  0  0  0
 59 93  1  0  0  0  0
 60 93  1  0  0  0  0
 65 93  1  0  0  0  0
 66 93  1  0  0  0  0
 41 94  1  0  0  0  0
 53 95  1  0  0  0  0
 65 96  1  0  0  0  0
 77 97  1  0  0  0  0
 46 98  1  0  0  0  0
 58 99  1  0  0  0  0
 70100  1  0  0  0  0
M  END
