 xtb: 6.7.1 (edcfbbe)
          09242615503D

 42 45  0     0  0            999 V2000
    4.8228   -1.1248    1.2630 C   0  0  0  0  0  0  0  0  0  0  0  0
    3.5809   -1.3870    0.6592 O   0  0  0  0  0  0  0  0  0  0  0  0
    2.6188   -0.4242    0.7258 C   0  0  0  0  0  0  0  0  0  0  0  0
    2.7422    0.8189    1.3374 C   0  0  0  0  0  0  0  0  0  0  0  0
    1.6941    1.7266    1.3432 C   0  0  0  0  0  0  0  0  0  0  0  0
    0.4628    1.4402    0.7672 C   0  0  0  0  0  0  0  0  0  0  0  0
    0.3382    0.2032    0.1603 C   0  0  0  0  0  0  0  0  0  0  0  0
    1.3903   -0.6990    0.1263 C   0  0  0  0  0  0  0  0  0  0  0  0
    1.0898   -1.8536   -0.5367 O   0  0  0  0  0  0  0  0  0  0  0  0
   -0.1587   -1.6396   -1.2102 C   0  0  0  0  0  0  0  0  0  0  0  0
   -0.9745   -2.9251   -1.2390 C   0  0  0  0  0  0  0  0  0  0  0  0
   -1.3528   -3.3726    0.1751 C   0  0  0  0  0  0  0  0  0  0  0  0
   -0.2557   -3.9375    0.8603 O   0  0  0  0  0  0  0  0  0  0  0  0
   -1.9407   -2.2138    0.9393 C   0  0  0  0  0  0  0  0  0  0  0  0
   -1.7389   -0.9446    0.6271 C   0  0  0  0  0  0  0  0  0  0  0  0
   -0.8546   -0.4575   -0.4906 C   0  0  0  0  0  0  0  0  0  0  0  0
   -1.5868    0.4465   -1.4868 C   0  0  0  0  0  0  0  0  0  0  0  0
   -2.2220    1.7095   -0.9034 C   0  0  0  0  0  0  0  0  0  0  0  0
   -1.2442    2.7033   -0.4952 N   0  0  0  0  0  0  0  0  0  0  0  0
   -1.7904    4.0437   -0.5635 C   0  0  0  0  0  0  0  0  0  0  0  0
   -0.6627    2.4364    0.8133 C   0  0  0  0  0  0  0  0  0  0  0  0
    5.4225   -2.0184    1.0990 H   0  0  0  0  0  0  0  0  0  0  0  0
    4.7189   -0.9512    2.3392 H   0  0  0  0  0  0  0  0  0  0  0  0
    5.3209   -0.2650    0.8029 H   0  0  0  0  0  0  0  0  0  0  0  0
    3.6696    1.0983    1.8112 H   0  0  0  0  0  0  0  0  0  0  0  0
    1.8449    2.6840    1.8199 H   0  0  0  0  0  0  0  0  0  0  0  0
    0.0799   -1.3423   -2.2445 H   0  0  0  0  0  0  0  0  0  0  0  0
   -1.8788   -2.7488   -1.8225 H   0  0  0  0  0  0  0  0  0  0  0  0
   -0.3899   -3.7103   -1.7208 H   0  0  0  0  0  0  0  0  0  0  0  0
   -2.0954   -4.1790    0.1201 H   0  0  0  0  0  0  0  0  0  0  0  0
    0.5067   -3.3571    0.7169 H   0  0  0  0  0  0  0  0  0  0  0  0
   -2.5283   -2.4757    1.8073 H   0  0  0  0  0  0  0  0  0  0  0  0
   -2.1726   -0.1685    1.2405 H   0  0  0  0  0  0  0  0  0  0  0  0
   -2.3748   -0.1404   -1.9662 H   0  0  0  0  0  0  0  0  0  0  0  0
   -0.8749    0.7597   -2.2536 H   0  0  0  0  0  0  0  0  0  0  0  0
   -2.8277    2.1520   -1.6988 H   0  0  0  0  0  0  0  0  0  0  0  0
   -2.9080    1.4485   -0.0792 H   0  0  0  0  0  0  0  0  0  0  0  0
   -2.6258    4.2063    0.1364 H   0  0  0  0  0  0  0  0  0  0  0  0
   -2.1449    4.2343   -1.5756 H   0  0  0  0  0  0  0  0  0  0  0  0
   -1.0038    4.7626   -0.3393 H   0  0  0  0  0  0  0  0  0  0  0  0
   -0.2625    3.3741    1.2049 H   0  0  0  0  0  0  0  0  0  0  0  0
   -1.4336    2.0881    1.5276 H   0  0  0  0  0  0  0  0  0  0  0  0
  1  2  1  0  0  0  0
  2  3  1  0  0  0  0
  3  4  4  0  0  0  0
  4  5  4  0  0  0  0
  5  6  4  0  0  0  0
  6  7  4  0  0  0  0
  3  8  4  0  0  0  0
  7  8  4  0  0  0  0
  8  9  1  0  0  0  0
  9 10  1  0  0  0  0
 10 11  1  0  0  0  0
 11 12  1  0  0  0  0
 12 13  1  0  0  0  0
 12 14  1  0  0  0  0
 14 15  2  0  0  0  0
  7 16  1  0  0  0  0
 10 16  1  0  0  0  0
 15 16  1  0  0  0  0
 16 17  1  0  0  0  0
 17 18  1  0  0  0  0
 18 19  1  0  0  0  0
 19 20  1  0  0  0  0
  6 21  1  0  0  0  0
 19 21  1  0  0  0  0
  1 22  1  0  0  0  0
  1 23  1  0  0  0  0
  1 24  1  0  0  0  0
  4 25  1  0  0  0  0
  5 26  1  0  0  0  0
 10 27  1  0  0  0  0
 11 28  1  0  0  0  0
 11 29  1  0  0  0  0
 12 30  1  0  0  0  0
 13 31  1  0  0  0  0
 14 32  1  0  0  0  0
 15 33  1  0  0  0  0
 17 34  1  0  0  0  0
 17 35  1  0  0  0  0
 18 36  1  0  0  0  0
 18 37  1  0  0  0  0
 20 38  1  0  0  0  0
 20 39  1  0  0  0  0
 20 40  1  0  0  0  0
 21 41  1  0  0  0  0
 21 42  1  0  0  0  0
M  END
