 xtb: 6.7.1 (edcfbbe)
          09242615273D

 32 34  0     0  0            999 V2000
    1.6523    2.1786    2.1965 O   0  0  0  0  0  0  0  0  0  0  0  0
    1.3658    1.3365    1.3199 C   0  0  0  0  0  0  0  0  0  0  0  0
   -0.0331    1.0581    1.0422 C   0  0  0  0  0  0  0  0  0  0  0  0
   -0.8954    1.7785    1.8012 O   0  0  0  0  0  0  0  0  0  0  0  0
   -0.4004    0.1347    0.1018 C   0  0  0  0  0  0  0  0  0  0  0  0
   -1.7618   -0.2460   -0.2581 C   0  0  0  0  0  0  0  0  0  0  0  0
   -1.9798   -1.3600   -1.0719 C   0  0  0  0  0  0  0  0  0  0  0  0
   -3.2578   -1.7372   -1.4282 C   0  0  0  0  0  0  0  0  0  0  0  0
   -4.3561   -1.0126   -0.9868 C   0  0  0  0  0  0  0  0  0  0  0  0
   -5.6087   -1.3805   -1.3382 O   0  0  0  0  0  0  0  0  0  0  0  0
   -4.1434    0.1086   -0.1695 C   0  0  0  0  0  0  0  0  0  0  0  0
   -5.2616    0.7924    0.2392 O   0  0  0  0  0  0  0  0  0  0  0  0
   -2.8668    0.4845    0.1886 C   0  0  0  0  0  0  0  0  0  0  0  0
    0.5455   -0.5402   -0.6021 O   0  0  0  0  0  0  0  0  0  0  0  0
    1.8592   -0.3257   -0.4064 C   0  0  0  0  0  0  0  0  0  0  0  0
    2.7567   -1.0515   -1.1779 C   0  0  0  0  0  0  0  0  0  0  0  0
    4.1201   -0.8524   -1.0014 C   0  0  0  0  0  0  0  0  0  0  0  0
    4.9651   -1.5724   -1.7698 O   0  0  0  0  0  0  0  0  0  0  0  0
    4.5958    0.0614   -0.0612 C   0  0  0  0  0  0  0  0  0  0  0  0
    3.7133    0.7917    0.7160 C   0  0  0  0  0  0  0  0  0  0  0  0
    4.1712    1.6637    1.6133 O   0  0  0  0  0  0  0  0  0  0  0  0
    2.3201    0.6001    0.5431 C   0  0  0  0  0  0  0  0  0  0  0  0
   -0.3123    2.3157    2.3807 H   0  0  0  0  0  0  0  0  0  0  0  0
   -1.1378   -1.9343   -1.4209 H   0  0  0  0  0  0  0  0  0  0  0  0
   -3.4303   -2.5984   -2.0527 H   0  0  0  0  0  0  0  0  0  0  0  0
   -6.2291   -0.7562   -0.9355 H   0  0  0  0  0  0  0  0  0  0  0  0
   -4.9948    1.5302    0.7987 H   0  0  0  0  0  0  0  0  0  0  0  0
   -2.7248    1.3505    0.8138 H   0  0  0  0  0  0  0  0  0  0  0  0
    2.4043   -1.7596   -1.9072 H   0  0  0  0  0  0  0  0  0  0  0  0
    5.8802   -1.3486   -1.5577 H   0  0  0  0  0  0  0  0  0  0  0  0
    5.6561    0.2137    0.0750 H   0  0  0  0  0  0  0  0  0  0  0  0
    3.3881    2.0768    2.0593 H   0  0  0  0  0  0  0  0  0  0  0  0
  1  2  2  0  0  0  0
  2  3  1  0  0  0  0
  3  4  1  0  0  0  0
  3  5  4  0  0  0  0
  5  6  1  0  0  0  0
  6  7  4  0  0  0  0
  7  8  4  0  0  0  0
  8  9  4  0  0  0  0
  9 10  1  0  0  0  0
  9 11  4  0  0  0  0
 11 12  1  0  0  0  0
  6 13  4  0  0  0  0
 11 13  4  0  0  0  0
  5 14  1  0  0  0  0
 14 15  1  0  0  0  0
 15 16  4  0  0  0  0
 16 17  4  0  0  0  0
 17 18  1  0  0  0  0
 17 19  4  0  0  0  0
 19 20  4  0  0  0  0
 20 21  1  0  0  0  0
  2 22  1  0  0  0  0
 15 22  4  0  0  0  0
 20 22  4  0  0  0  0
  4 23  1  0  0  0  0
  7 24  1  0  0  0  0
  8 25  1  0  0  0  0
 10 26  1  0  0  0  0
 12 27  1  0  0  0  0
 13 28  1  0  0  0  0
 16 29  1  0  0  0  0
 18 30  1  0  0  0  0
 19 31  1  0  0  0  0
 21 32  1  0  0  0  0
M  END
