 xtb: 6.7.1 (edcfbbe)
          09242620033D

 60110  0     0  0            999 V2000
   -6.2673    2.3655    2.3411 B   0  0  0  0  0  0  0  0  0  0  0  0
   -6.0695    0.8290    1.6110 B   0  0  0  0  0  0  0  0  0  0  0  0
   -4.9352    3.4433    2.2036 B   0  0  0  0  0  0  0  0  0  0  0  0
   -4.7261    1.7877    1.9386 B   0  0  0  0  0  0  0  0  0  0  0  0
   -4.5122    0.1371    1.5975 B   0  0  0  0  0  0  0  0  0  0  0  0
   -5.6498   -2.4432    0.7956 B   0  0  0  0  0  0  0  0  0  0  0  0
   -5.4319   -4.1458    0.7525 B   0  0  0  0  0  0  0  0  0  0  0  0
   -4.3058   -1.4741    1.1937 B   0  0  0  0  0  0  0  0  0  0  0  0
   -4.0999   -3.0942    0.7256 B   0  0  0  0  0  0  0  0  0  0  0  0
   -3.8946   -4.6808    0.1847 B   0  0  0  0  0  0  0  0  0  0  0  0
   -3.3698    2.7987    2.1475 B   0  0  0  0  0  0  0  0  0  0  0  0
   -3.1599    1.1359    1.8057 B   0  0  0  0  0  0  0  0  0  0  0  0
   -2.0167    3.7226    2.5821 B   0  0  0  0  0  0  0  0  0  0  0  0
   -1.8144    2.1384    2.0300 B   0  0  0  0  0  0  0  0  0  0  0  0
   -1.6094    0.5401    1.4878 B   0  0  0  0  0  0  0  0  0  0  0  0
   -2.7440   -2.1092    1.0263 B   0  0  0  0  0  0  0  0  0  0  0  0
   -2.5331   -3.7287    0.5107 B   0  0  0  0  0  0  0  0  0  0  0  0
   -1.4018   -1.0794    1.0863 B   0  0  0  0  0  0  0  0  0  0  0  0
   -1.1878   -2.7466    0.8300 B   0  0  0  0  0  0  0  0  0  0  0  0
   -0.9766   -4.4018    0.5682 B   0  0  0  0  0  0  0  0  0  0  0  0
   -0.4663    3.1579    2.1934 B   0  0  0  0  0  0  0  0  0  0  0  0
   -0.2568    1.5221    1.7517 B   0  0  0  0  0  0  0  0  0  0  0  0
    0.8768    4.1917    2.1926 B   0  0  0  0  0  0  0  0  0  0  0  0
    1.0901    2.5356    1.9316 B   0  0  0  0  0  0  0  0  0  0  0  0
    1.3012    0.8852    1.5982 B   0  0  0  0  0  0  0  0  0  0  0  0
    0.1565   -1.7032    0.8828 B   0  0  0  0  0  0  0  0  0  0  0  0
    0.3738   -3.3954    0.6857 B   0  0  0  0  0  0  0  0  0  0  0  0
    1.5083   -0.7295    1.1823 B   0  0  0  0  0  0  0  0  0  0  0  0
    1.7187   -2.3690    0.8066 B   0  0  0  0  0  0  0  0  0  0  0  0
    1.9293   -4.0103    0.4745 B   0  0  0  0  0  0  0  0  0  0  0  0
    2.4366    3.5287    2.2035 B   0  0  0  0  0  0  0  0  0  0  0  0
    2.6487    1.8961    1.7440 B   0  0  0  0  0  0  0  0  0  0  0  0
    3.7964    4.4659    2.5823 B   0  0  0  0  0  0  0  0  0  0  0  0
    4.0027    2.8779    2.0501 B   0  0  0  0  0  0  0  0  0  0  0  0
    4.2074    1.2610    1.5703 B   0  0  0  0  0  0  0  0  0  0  0  0
    3.0669   -1.3637    1.0220 B   0  0  0  0  0  0  0  0  0  0  0  0
    3.2702   -2.9769    0.4816 B   0  0  0  0  0  0  0  0  0  0  0  0
    4.4116   -0.3336    1.1019 B   0  0  0  0  0  0  0  0  0  0  0  0
    4.6208   -1.9560    0.6473 B   0  0  0  0  0  0  0  0  0  0  0  0
    4.8236   -3.5529    0.1456 B   0  0  0  0  0  0  0  0  0  0  0  0
    5.3358    3.9353    2.0145 B   0  0  0  0  0  0  0  0  0  0  0  0
    5.5546    2.2362    1.9352 B   0  0  0  0  0  0  0  0  0  0  0  0
    5.9580   -0.9350    0.7226 B   0  0  0  0  0  0  0  0  0  0  0  0
    6.1805   -2.6455    0.7025 B   0  0  0  0  0  0  0  0  0  0  0  0
   -7.2563    2.7098    2.8708 H   0  0  0  0  0  0  0  0  0  0  0  0
   -6.9681    0.3331    1.0505 H   0  0  0  0  0  0  0  0  0  0  0  0
   -5.1362    4.5994    2.1377 H   0  0  0  0  0  0  0  0  0  0  0  0
   -6.6760   -1.9890    0.4642 H   0  0  0  0  0  0  0  0  0  0  0  0
   -6.2786   -4.9111    1.0254 H   0  0  0  0  0  0  0  0  0  0  0  0
   -3.8295   -5.6626   -0.4581 H   0  0  0  0  0  0  0  0  0  0  0  0
   -2.1587    4.7541    3.1288 H   0  0  0  0  0  0  0  0  0  0  0  0
   -0.8453   -5.5708    0.5722 H   0  0  0  0  0  0  0  0  0  0  0  0
    0.7296    5.3581    2.2284 H   0  0  0  0  0  0  0  0  0  0  0  0
    2.0876   -5.1645    0.3077 H   0  0  0  0  0  0  0  0  0  0  0  0
    3.7293    5.4413    3.2348 H   0  0  0  0  0  0  0  0  0  0  0  0
    5.0073   -4.5142   -0.5066 H   0  0  0  0  0  0  0  0  0  0  0  0
    6.1759    4.7148    1.7647 H   0  0  0  0  0  0  0  0  0  0  0  0
    6.5715    1.7628    2.2738 H   0  0  0  0  0  0  0  0  0  0  0  0
    6.8271   -0.2347    0.3639 H   0  0  0  0  0  0  0  0  0  0  0  0
    7.1951   -3.1659    0.9795 H   0  0  0  0  0  0  0  0  0  0  0  0
  1  2  1  0  0  0  0
  1  3  1  0  0  0  0
  1  4  1  0  0  0  0
  2  4  1  0  0  0  0
  3  4  1  0  0  0  0
  2  5  1  0  0  0  0
  4  5  1  0  0  0  0
  6  7  1  0  0  0  0
  5  8  1  0  0  0  0
  6  8  1  0  0  0  0
  6  9  1  0  0  0  0
  7  9  1  0  0  0  0
  8  9  1  0  0  0  0
  7 10  1  0  0  0  0
  9 10  1  0  0  0  0
  3 11  1  0  0  0  0
  4 11  1  0  0  0  0
  4 12  1  0  0  0  0
  5 12  1  0  0  0  0
 11 12  1  0  0  0  0
 11 13  1  0  0  0  0
 11 14  1  0  0  0  0
 12 14  1  0  0  0  0
 13 14  1  0  0  0  0
 12 15  1  0  0  0  0
 14 15  1  0  0  0  0
  8 16  1  0  0  0  0
  9 16  1  0  0  0  0
  9 17  1  0  0  0  0
 10 17  1  0  0  0  0
 16 17  1  0  0  0  0
 15 18  1  0  0  0  0
 16 18  1  0  0  0  0
 16 19  1  0  0  0  0
 17 19  1  0  0  0  0
 18 19  1  0  0  0  0
 17 20  1  0  0  0  0
 19 20  1  0  0  0  0
 13 21  1  0  0  0  0
 14 21  1  0  0  0  0
 14 22  1  0  0  0  0
 15 22  1  0  0  0  0
 21 22  1  0  0  0  0
 21 23  1  0  0  0  0
 21 24  1  0  0  0  0
 22 24  1  0  0  0  0
 23 24  1  0  0  0  0
 22 25  1  0  0  0  0
 24 25  1  0  0  0  0
 18 26  1  0  0  0  0
 19 26  1  0  0  0  0
 19 27  1  0  0  0  0
 20 27  1  0  0  0  0
 26 27  1  0  0  0  0
 25 28  1  0  0  0  0
 26 28  1  0  0  0  0
 26 29  1  0  0  0  0
 27 29  1  0  0  0  0
 28 29  1  0  0  0  0
 27 30  1  0  0  0  0
 29 30  1  0  0  0  0
 23 31  1  0  0  0  0
 24 31  1  0  0  0  0
 24 32  1  0  0  0  0
 25 32  1  0  0  0  0
 31 32  1  0  0  0  0
 31 33  1  0  0  0  0
 31 34  1  0  0  0  0
 32 34  1  0  0  0  0
 33 34  1  0  0  0  0
 32 35  1  0  0  0  0
 34 35  1  0  0  0  0
 28 36  1  0  0  0  0
 29 36  1  0  0  0  0
 29 37  1  0  0  0  0
 30 37  1  0  0  0  0
 36 37  1  0  0  0  0
 35 38  1  0  0  0  0
 36 38  1  0  0  0  0
 36 39  1  0  0  0  0
 37 39  1  0  0  0  0
 38 39  1  0  0  0  0
 37 40  1  0  0  0  0
 39 40  1  0  0  0  0
 33 41  1  0  0  0  0
 34 41  1  0  0  0  0
 34 42  1  0  0  0  0
 35 42  1  0  0  0  0
 41 42  1  0  0  0  0
 38 43  1  0  0  0  0
 39 43  1  0  0  0  0
 39 44  1  0  0  0  0
 40 44  1  0  0  0  0
 43 44  1  0  0  0  0
  1 45  1  0  0  0  0
  2 46  1  0  0  0  0
  3 47  1  0  0  0  0
  6 48  1  0  0  0  0
  7 49  1  0  0  0  0
 10 50  1  0  0  0  0
 13 51  1  0  0  0  0
 20 52  1  0  0  0  0
 23 53  1  0  0  0  0
 30 54  1  0  0  0  0
 33 55  1  0  0  0  0
 40 56  1  0  0  0  0
 41 57  1  0  0  0  0
 42 58  1  0  0  0  0
 43 59  1  0  0  0  0
 44 60  1  0  0  0  0
M  END
