 xtb: 6.7.1 (edcfbbe)
          09242615343D

 31 33  0     0  0            999 V2000
    1.5883    2.5902    2.1981 O   0  0  0  0  0  0  0  0  0  0  0  0
    1.3846    1.6304    1.4515 C   0  0  0  0  0  0  0  0  0  0  0  0
    0.0070    1.3250    1.0655 C   0  0  0  0  0  0  0  0  0  0  0  0
   -0.8947    2.1758    1.6121 O   0  0  0  0  0  0  0  0  0  0  0  0
   -0.2994    0.2873    0.2323 C   0  0  0  0  0  0  0  0  0  0  0  0
   -1.6282   -0.1086   -0.2218 C   0  0  0  0  0  0  0  0  0  0  0  0
   -1.7640   -1.0846   -1.2116 C   0  0  0  0  0  0  0  0  0  0  0  0
   -3.0108   -1.4804   -1.6500 C   0  0  0  0  0  0  0  0  0  0  0  0
   -4.1593   -0.9169   -1.1117 C   0  0  0  0  0  0  0  0  0  0  0  0
   -5.3823   -1.3072   -1.5388 O   0  0  0  0  0  0  0  0  0  0  0  0
   -4.0296    0.0649   -0.1174 C   0  0  0  0  0  0  0  0  0  0  0  0
   -5.1950    0.5912    0.3842 O   0  0  0  0  0  0  0  0  0  0  0  0
   -2.7841    0.4620    0.3193 C   0  0  0  0  0  0  0  0  0  0  0  0
    0.6914   -0.5034   -0.2675 O   0  0  0  0  0  0  0  0  0  0  0  0
    1.9797   -0.2943    0.0534 C   0  0  0  0  0  0  0  0  0  0  0  0
    2.9214   -1.1651   -0.4912 C   0  0  0  0  0  0  0  0  0  0  0  0
    4.2632   -1.0038   -0.1917 C   0  0  0  0  0  0  0  0  0  0  0  0
    5.1457   -1.8719   -0.7354 O   0  0  0  0  0  0  0  0  0  0  0  0
    4.6766    0.0352    0.6545 C   0  0  0  0  0  0  0  0  0  0  0  0
    3.7506    0.8939    1.1878 C   0  0  0  0  0  0  0  0  0  0  0  0
    2.3893    0.7459    0.9001 C   0  0  0  0  0  0  0  0  0  0  0  0
   -0.3361    2.8003    2.1309 H   0  0  0  0  0  0  0  0  0  0  0  0
   -0.8825   -1.5313   -1.6413 H   0  0  0  0  0  0  0  0  0  0  0  0
   -3.1191   -2.2318   -2.4153 H   0  0  0  0  0  0  0  0  0  0  0  0
   -6.0459   -0.8025   -1.0474 H   0  0  0  0  0  0  0  0  0  0  0  0
   -4.9812    1.2554    1.0485 H   0  0  0  0  0  0  0  0  0  0  0  0
   -2.7058    1.2152    1.0858 H   0  0  0  0  0  0  0  0  0  0  0  0
    2.6068   -1.9642   -1.1412 H   0  0  0  0  0  0  0  0  0  0  0  0
    6.0434   -1.6591   -0.4503 H   0  0  0  0  0  0  0  0  0  0  0  0
    5.7274    0.1513    0.8816 H   0  0  0  0  0  0  0  0  0  0  0  0
    4.0426    1.7011    1.8416 H   0  0  0  0  0  0  0  0  0  0  0  0
  1  2  2  0  0  0  0
  2  3  1  0  0  0  0
  3  4  1  0  0  0  0
  3  5  4  0  0  0  0
  5  6  1  0  0  0  0
  6  7  4  0  0  0  0
  7  8  4  0  0  0  0
  8  9  4  0  0  0  0
  9 10  1  0  0  0  0
  9 11  4  0  0  0  0
 11 12  1  0  0  0  0
  6 13  4  0  0  0  0
 11 13  4  0  0  0  0
  5 14  1  0  0  0  0
 14 15  1  0  0  0  0
 15 16  4  0  0  0  0
 16 17  4  0  0  0  0
 17 18  1  0  0  0  0
 17 19  4  0  0  0  0
 19 20  2  0  0  0  0
  2 21  1  0  0  0  0
 15 21  4  0  0  0  0
 20 21  4  0  0  0  0
  4 22  1  0  0  0  0
  7 23  1  0  0  0  0
  8 24  1  0  0  0  0
 10 25  1  0  0  0  0
 12 26  1  0  0  0  0
 13 27  1  0  0  0  0
 16 28  1  0  0  0  0
 18 29  1  0  0  0  0
 19 30  1  0  0  0  0
 20 31  1  0  0  0  0
M  END
