 xtb: 6.7.1 (edcfbbe)
          09242615183D

 38 39  0     0  0            999 V2000
   -4.7547   -0.3320   -1.3814 C   0  0  0  0  0  0  0  0  0  0  0  0
   -4.1246    0.4438   -0.2683 C   0  0  0  0  0  0  0  0  0  0  0  0
   -4.9183    1.0912    0.6324 C   0  0  0  0  0  0  0  0  0  0  0  0
   -4.4634    1.7379    1.8032 C   0  0  0  0  0  0  0  0  0  0  0  0
   -4.1649    2.2469    2.7874 N   0  0  0  0  0  0  0  0  0  0  0  0
   -6.3264    1.1114    0.5115 C   0  0  0  0  0  0  0  0  0  0  0  0
   -7.4693    1.1439    0.4168 N   0  0  0  0  0  0  0  0  0  0  0  0
   -2.6744    0.4560   -0.1736 C   0  0  0  0  0  0  0  0  0  0  0  0
   -1.9857    1.5971    0.3081 C   0  0  0  0  0  0  0  0  0  0  0  0
   -0.6273    1.6113    0.4020 C   0  0  0  0  0  0  0  0  0  0  0  0
    0.1449    0.4857    0.0322 C   0  0  0  0  0  0  0  0  0  0  0  0
    1.5404    0.4727    0.1468 C   0  0  0  0  0  0  0  0  0  0  0  0
    2.2940   -0.6321   -0.2250 C   0  0  0  0  0  0  0  0  0  0  0  0
    3.6616   -0.6570   -0.1479 N   0  0  0  0  0  0  0  0  0  0  0  0
    4.3862   -1.9052   -0.2449 C   0  0  0  0  0  0  0  0  0  0  0  0
    4.4139    0.5012    0.2602 C   0  0  0  0  0  0  0  0  0  0  0  0
    4.5447    0.6388    1.7823 C   0  0  0  0  0  0  0  0  0  0  0  0
    5.4575   -0.2710    2.2603 F   0  0  0  0  0  0  0  0  0  0  0  0
    1.5971   -1.7643   -0.7304 C   0  0  0  0  0  0  0  0  0  0  0  0
    0.2405   -1.7744   -0.8413 C   0  0  0  0  0  0  0  0  0  0  0  0
   -0.5368   -0.6567   -0.4659 C   0  0  0  0  0  0  0  0  0  0  0  0
   -1.9328   -0.6421   -0.5713 C   0  0  0  0  0  0  0  0  0  0  0  0
   -4.1663   -0.2420   -2.2927 H   0  0  0  0  0  0  0  0  0  0  0  0
   -4.8058   -1.3890   -1.1140 H   0  0  0  0  0  0  0  0  0  0  0  0
   -5.7705    0.0095   -1.5705 H   0  0  0  0  0  0  0  0  0  0  0  0
   -2.5480    2.4803    0.5692 H   0  0  0  0  0  0  0  0  0  0  0  0
   -0.1200    2.4953    0.7603 H   0  0  0  0  0  0  0  0  0  0  0  0
    2.0052    1.3580    0.5517 H   0  0  0  0  0  0  0  0  0  0  0  0
    4.4506   -2.2466   -1.2830 H   0  0  0  0  0  0  0  0  0  0  0  0
    3.9125   -2.6834    0.3570 H   0  0  0  0  0  0  0  0  0  0  0  0
    5.3953   -1.7636    0.1336 H   0  0  0  0  0  0  0  0  0  0  0  0
    3.9472    1.4040   -0.1388 H   0  0  0  0  0  0  0  0  0  0  0  0
    5.4190    0.4293   -0.1650 H   0  0  0  0  0  0  0  0  0  0  0  0
    4.9166    1.6298    2.0594 H   0  0  0  0  0  0  0  0  0  0  0  0
    3.5973    0.4294    2.2872 H   0  0  0  0  0  0  0  0  0  0  0  0
    2.1511   -2.6324   -1.0466 H   0  0  0  0  0  0  0  0  0  0  0  0
   -0.2611   -2.6495   -1.2296 H   0  0  0  0  0  0  0  0  0  0  0  0
   -2.4251   -1.5323   -0.9353 H   0  0  0  0  0  0  0  0  0  0  0  0
  1  2  1  0  0  0  0
  2  3  2  0  0  0  0
  3  4  1  0  0  0  0
  4  5  3  0  0  0  0
  3  6  1  0  0  0  0
  6  7  3  0  0  0  0
  2  8  1  0  0  0  0
  8  9  4  0  0  0  0
  9 10  2  0  0  0  0
 10 11  4  0  0  0  0
 11 12  4  0  0  0  0
 12 13  4  0  0  0  0
 13 14  1  0  0  0  0
 14 15  1  0  0  0  0
 14 16  1  0  0  0  0
 16 17  1  0  0  0  0
 17 18  1  0  0  0  0
 13 19  4  0  0  0  0
 19 20  2  0  0  0  0
 11 21  4  0  0  0  0
 20 21  4  0  0  0  0
  8 22  4  0  0  0  0
 21 22  4  0  0  0  0
  1 23  1  0  0  0  0
  1 24  1  0  0  0  0
  1 25  1  0  0  0  0
  9 26  1  0  0  0  0
 10 27  1  0  0  0  0
 12 28  1  0  0  0  0
 15 29  1  0  0  0  0
 15 30  1  0  0  0  0
 15 31  1  0  0  0  0
 16 32  1  0  0  0  0
 16 33  1  0  0  0  0
 17 34  1  0  0  0  0
 17 35  1  0  0  0  0
 19 36  1  0  0  0  0
 20 37  1  0  0  0  0
 22 38  1  0  0  0  0
M  END
