 xtb: 6.7.1pre (5071a88)
          09012620283D

 55 90  0     0  0            999 V2000
   -4.7806   -2.6045    0.3173 B   0  0  0  0  0  0  0  0  0  0  0  0
   -4.5695   -1.3567   -0.6480 B   0  0  0  0  0  0  0  0  0  0  0  0
   -4.4639   -0.2474   -1.8829 B   0  0  0  0  0  0  0  0  0  0  0  0
   -3.3965   -2.6620   -0.5028 B   0  0  0  0  0  0  0  0  0  0  0  0
   -3.0380    0.1776   -1.4048 B   0  0  0  0  0  0  0  0  0  0  0  0
   -4.3909    0.3426   -0.1924 B   0  0  0  0  0  0  0  0  0  0  0  0
   -5.0310    1.4031    0.8192 B   0  0  0  0  0  0  0  0  0  0  0  0
   -4.6201    2.9864    0.9976 B   0  0  0  0  0  0  0  0  0  0  0  0
   -2.8089    0.5128    0.1995 B   0  0  0  0  0  0  0  0  0  0  0  0
   -3.2186    3.2275    1.7932 B   0  0  0  0  0  0  0  0  0  0  0  0
   -2.1611   -3.7758   -0.5843 B   0  0  0  0  0  0  0  0  0  0  0  0
   -1.8769   -2.2481   -0.9334 B   0  0  0  0  0  0  0  0  0  0  0  0
   -1.6972   -0.6133   -0.8358 B   0  0  0  0  0  0  0  0  0  0  0  0
   -0.5844   -3.2190   -0.8350 B   0  0  0  0  0  0  0  0  0  0  0  0
   -0.2198   -0.1484   -0.3118 B   0  0  0  0  0  0  0  0  0  0  0  0
   -1.3950    0.0358    0.8521 B   0  0  0  0  0  0  0  0  0  0  0  0
   -1.7757    1.6621    0.7592 B   0  0  0  0  0  0  0  0  0  0  0  0
   -1.8975    3.2370    0.8826 B   0  0  0  0  0  0  0  0  0  0  0  0
   -0.2153    1.0372    1.0697 B   0  0  0  0  0  0  0  0  0  0  0  0
   -0.7521    4.3480    0.5584 B   0  0  0  0  0  0  0  0  0  0  0  0
    0.8265   -4.1129   -0.7400 B   0  0  0  0  0  0  0  0  0  0  0  0
    0.9251   -2.5054   -0.7497 B   0  0  0  0  0  0  0  0  0  0  0  0
    1.2144   -0.9490   -0.5870 B   0  0  0  0  0  0  0  0  0  0  0  0
    2.2007   -3.4026   -0.1682 B   0  0  0  0  0  0  0  0  0  0  0  0
    2.6220   -0.1957   -0.2930 B   0  0  0  0  0  0  0  0  0  0  0  0
    1.2341    0.5516    0.1426 B   0  0  0  0  0  0  0  0  0  0  0  0
    1.1248    2.0009    1.0430 B   0  0  0  0  0  0  0  0  0  0  0  0
    0.5366    3.4372    0.6180 B   0  0  0  0  0  0  0  0  0  0  0  0
    2.4580    1.6726    0.0875 B   0  0  0  0  0  0  0  0  0  0  0  0
    1.2136    3.0171   -0.8530 B   0  0  0  0  0  0  0  0  0  0  0  0
    3.2202   -3.8508    1.1044 B   0  0  0  0  0  0  0  0  0  0  0  0
    3.6240   -2.6535    0.0637 B   0  0  0  0  0  0  0  0  0  0  0  0
    4.0250   -1.1219   -0.2366 B   0  0  0  0  0  0  0  0  0  0  0  0
    4.4174   -2.8355    1.4203 B   0  0  0  0  0  0  0  0  0  0  0  0
    5.3636   -0.2419   -0.6898 B   0  0  0  0  0  0  0  0  0  0  0  0
    4.1041    0.5310   -0.0135 B   0  0  0  0  0  0  0  0  0  0  0  0
    4.0181    2.3218   -0.0338 B   0  0  0  0  0  0  0  0  0  0  0  0
    2.8218    3.0968   -0.9129 B   0  0  0  0  0  0  0  0  0  0  0  0
    5.4220    1.4583   -0.1853 B   0  0  0  0  0  0  0  0  0  0  0  0
    4.2961    3.5501   -1.0140 B   0  0  0  0  0  0  0  0  0  0  0  0
   -5.1687   -3.0949    1.3107 H   0  0  0  0  0  0  0  0  0  0  0  0
   -5.7161   -2.0764   -0.3935 H   0  0  0  0  0  0  0  0  0  0  0  0
   -5.2640   -0.1207   -2.7417 H   0  0  0  0  0  0  0  0  0  0  0  0
   -5.7711    1.0074    1.6646 H   0  0  0  0  0  0  0  0  0  0  0  0
   -5.3645    3.8431    0.6720 H   0  0  0  0  0  0  0  0  0  0  0  0
   -3.2343    3.2250    2.9757 H   0  0  0  0  0  0  0  0  0  0  0  0
   -2.3593   -4.9262   -0.4732 H   0  0  0  0  0  0  0  0  0  0  0  0
   -0.8965    5.4755    0.2443 H   0  0  0  0  0  0  0  0  0  0  0  0
    0.8223   -5.2498   -1.0233 H   0  0  0  0  0  0  0  0  0  0  0  0
    0.5537    2.6943   -1.7837 H   0  0  0  0  0  0  0  0  0  0  0  0
    2.9703   -4.8176    1.7173 H   0  0  0  0  0  0  0  0  0  0  0  0
    5.2631   -2.5125    2.1565 H   0  0  0  0  0  0  0  0  0  0  0  0
    6.3848   -0.6467   -1.0956 H   0  0  0  0  0  0  0  0  0  0  0  0
    6.5032    1.8382    0.0650 H   0  0  0  0  0  0  0  0  0  0  0  0
    5.1389    4.2524   -1.4154 H   0  0  0  0  0  0  0  0  0  0  0  0
  1  2  1  0  0  0  0
  2  3  1  0  0  0  0
  1  4  1  0  0  0  0
  2  4  1  0  0  0  0
  3  5  1  0  0  0  0
  2  6  1  0  0  0  0
  3  6  1  0  0  0  0
  5  6  1  0  0  0  0
  6  7  1  0  0  0  0
  7  8  1  0  0  0  0
  5  9  1  0  0  0  0
  6  9  1  0  0  0  0
  8 10  1  0  0  0  0
  4 11  1  0  0  0  0
  4 12  1  0  0  0  0
 11 12  1  0  0  0  0
  5 13  1  0  0  0  0
  9 13  1  0  0  0  0
 12 13  1  0  0  0  0
 11 14  1  0  0  0  0
 12 14  1  0  0  0  0
 13 15  1  0  0  0  0
  9 16  1  0  0  0  0
 13 16  1  0  0  0  0
 15 16  1  0  0  0  0
  9 17  1  0  0  0  0
 16 17  1  0  0  0  0
 10 18  1  0  0  0  0
 17 18  1  0  0  0  0
 15 19  1  0  0  0  0
 16 19  1  0  0  0  0
 17 19  1  0  0  0  0
 18 20  1  0  0  0  0
 14 21  1  0  0  0  0
 14 22  1  0  0  0  0
 21 22  1  0  0  0  0
 15 23  1  0  0  0  0
 22 23  1  0  0  0  0
 21 24  1  0  0  0  0
 22 24  1  0  0  0  0
 23 25  1  0  0  0  0
 15 26  1  0  0  0  0
 19 26  1  0  0  0  0
 23 26  1  0  0  0  0
 25 26  1  0  0  0  0
 19 27  1  0  0  0  0
 26 27  1  0  0  0  0
 20 28  1  0  0  0  0
 27 28  1  0  0  0  0
 25 29  1  0  0  0  0
 26 29  1  0  0  0  0
 27 29  1  0  0  0  0
 28 30  1  0  0  0  0
 24 31  1  0  0  0  0
 24 32  1  0  0  0  0
 31 32  1  0  0  0  0
 25 33  1  0  0  0  0
 32 33  1  0  0  0  0
 31 34  1  0  0  0  0
 32 34  1  0  0  0  0
 33 35  1  0  0  0  0
 25 36  1  0  0  0  0
 33 36  1  0  0  0  0
 35 36  1  0  0  0  0
 29 37  1  0  0  0  0
 36 37  1  0  0  0  0
 29 38  1  0  0  0  0
 30 38  1  0  0  0  0
 37 38  1  0  0  0  0
 35 39  1  0  0  0  0
 36 39  1  0  0  0  0
 37 39  1  0  0  0  0
 37 40  1  0  0  0  0
 38 40  1  0  0  0  0
  1 41  1  0  0  0  0
  1 42  1  0  0  0  0
  2 42  1  0  0  0  0
  3 43  1  0  0  0  0
  7 44  1  0  0  0  0
  8 45  1  0  0  0  0
 10 46  1  0  0  0  0
 11 47  1  0  0  0  0
 20 48  1  0  0  0  0
 21 49  1  0  0  0  0
 30 50  1  0  0  0  0
 31 51  1  0  0  0  0
 34 52  1  0  0  0  0
 35 53  1  0  0  0  0
 39 54  1  0  0  0  0
 40 55  1  0  0  0  0
M  END
