 xtb: 6.7.1pre (5071a88)
          09012616563D

 63103  0     0  0            999 V2000
   -3.7119   -4.2027    0.9421 B   0  0  0  0  0  0  0  0  0  0  0  0
   -2.1738   -4.5527    0.4854 B   0  0  0  0  0  0  0  0  0  0  0  0
   -3.7154   -3.3572   -0.4081 B   0  0  0  0  0  0  0  0  0  0  0  0
   -2.0409   -2.9339   -0.3135 B   0  0  0  0  0  0  0  0  0  0  0  0
   -3.2234   -2.1967   -1.2512 B   0  0  0  0  0  0  0  0  0  0  0  0
   -2.6109   -0.7100   -1.1508 B   0  0  0  0  0  0  0  0  0  0  0  0
   -1.4279   -1.8231   -1.5742 B   0  0  0  0  0  0  0  0  0  0  0  0
   -3.1124    0.5744   -0.4204 B   0  0  0  0  0  0  0  0  0  0  0  0
   -2.6912    2.7210    1.6104 B   0  0  0  0  0  0  0  0  0  0  0  0
   -3.5509    1.8049    0.3375 B   0  0  0  0  0  0  0  0  0  0  0  0
   -3.9863    3.3002    0.5950 B   0  0  0  0  0  0  0  0  0  0  0  0
   -2.7382    4.4900    0.9838 B   0  0  0  0  0  0  0  0  0  0  0  0
   -4.4020    4.7953    0.4095 B   0  0  0  0  0  0  0  0  0  0  0  0
   -3.6450    5.7589    1.6115 B   0  0  0  0  0  0  0  0  0  0  0  0
   -5.1770    5.9699    0.9586 B   0  0  0  0  0  0  0  0  0  0  0  0
    0.4222   -3.4215    1.4949 B   0  0  0  0  0  0  0  0  0  0  0  0
    1.4721   -4.1957    0.5258 B   0  0  0  0  0  0  0  0  0  0  0  0
   -1.0579   -3.3768    0.9163 B   0  0  0  0  0  0  0  0  0  0  0  0
    1.3362   -4.0318   -1.1493 B   0  0  0  0  0  0  0  0  0  0  0  0
   -0.8413   -1.9260    0.1970 B   0  0  0  0  0  0  0  0  0  0  0  0
   -0.8069   -0.5678   -0.5670 B   0  0  0  0  0  0  0  0  0  0  0  0
    3.4901   -3.1678   -3.1057 B   0  0  0  0  0  0  0  0  0  0  0  0
   -0.4784    1.1228   -0.1609 B   0  0  0  0  0  0  0  0  0  0  0  0
    0.4554    0.4408   -1.3241 B   0  0  0  0  0  0  0  0  0  0  0  0
   -1.8205    1.8169    0.3162 B   0  0  0  0  0  0  0  0  0  0  0  0
   -1.2931    3.3030    0.8729 B   0  0  0  0  0  0  0  0  0  0  0  0
    0.8819    2.4447    1.3514 B   0  0  0  0  0  0  0  0  0  0  0  0
   -1.2226    4.8251    0.3113 B   0  0  0  0  0  0  0  0  0  0  0  0
    0.1815    4.0536    0.9040 B   0  0  0  0  0  0  0  0  0  0  0  0
    0.1085    5.5800    0.2489 B   0  0  0  0  0  0  0  0  0  0  0  0
    3.0085   -4.8743    0.9864 B   0  0  0  0  0  0  0  0  0  0  0  0
    4.2401   -4.7317   -0.1978 B   0  0  0  0  0  0  0  0  0  0  0  0
    2.4760   -4.9066   -0.5243 B   0  0  0  0  0  0  0  0  0  0  0  0
    4.3035   -3.2917   -0.9154 B   0  0  0  0  0  0  0  0  0  0  0  0
    2.9966   -3.9453   -1.8510 B   0  0  0  0  0  0  0  0  0  0  0  0
    3.3940   -2.1674   -1.8282 B   0  0  0  0  0  0  0  0  0  0  0  0
    4.7018   -1.7175   -0.9123 B   0  0  0  0  0  0  0  0  0  0  0  0
    3.1956   -0.9018   -0.8837 B   0  0  0  0  0  0  0  0  0  0  0  0
    3.4206    0.3282    0.1625 B   0  0  0  0  0  0  0  0  0  0  0  0
    1.9792    0.1077   -0.5930 B   0  0  0  0  0  0  0  0  0  0  0  0
    1.1572    1.4612   -0.0377 B   0  0  0  0  0  0  0  0  0  0  0  0
    2.7477    1.6794   -0.5972 B   0  0  0  0  0  0  0  0  0  0  0  0
    1.7824    3.7144    0.9419 B   0  0  0  0  0  0  0  0  0  0  0  0
    3.2231    3.1418   -0.8738 B   0  0  0  0  0  0  0  0  0  0  0  0
    3.2627    3.9564    0.5474 B   0  0  0  0  0  0  0  0  0  0  0  0
   -4.3114   -4.2066    1.9554 H   0  0  0  0  0  0  0  0  0  0  0  0
   -1.8146   -5.5535   -0.0429 H   0  0  0  0  0  0  0  0  0  0  0  0
   -2.7628    2.3625    2.7376 H   0  0  0  0  0  0  0  0  0  0  0  0
   -0.9975   -2.1929   -2.6115 H   0  0  0  0  0  0  0  0  0  0  0  0
   -3.1812    6.6607    2.2127 H   0  0  0  0  0  0  0  0  0  0  0  0
   -6.1000    6.6755    1.0885 H   0  0  0  0  0  0  0  0  0  0  0  0
    0.7637   -2.8873    2.5112 H   0  0  0  0  0  0  0  0  0  0  0  0
    0.4906   -3.7485   -1.8931 H   0  0  0  0  0  0  0  0  0  0  0  0
    0.4369    0.6716   -2.4917 H   0  0  0  0  0  0  0  0  0  0  0  0
    3.8624   -3.0814   -4.2152 H   0  0  0  0  0  0  0  0  0  0  0  0
    0.6873    1.9426    2.4013 H   0  0  0  0  0  0  0  0  0  0  0  0
    0.7987    6.5010    0.0817 H   0  0  0  0  0  0  0  0  0  0  0  0
    3.2332   -5.3591    2.0275 H   0  0  0  0  0  0  0  0  0  0  0  0
    5.0471   -5.5840   -0.3477 H   0  0  0  0  0  0  0  0  0  0  0  0
    4.1089    0.4729    1.1021 H   0  0  0  0  0  0  0  0  0  0  0  0
    5.7536   -1.2412   -0.7079 H   0  0  0  0  0  0  0  0  0  0  0  0
    3.4654    3.6818   -1.8933 H   0  0  0  0  0  0  0  0  0  0  0  0
    4.2028    4.4955    1.0143 H   0  0  0  0  0  0  0  0  0  0  0  0
  1  2  1  0  0  0  0
  1  3  1  0  0  0  0
  2  4  1  0  0  0  0
  3  4  1  0  0  0  0
  3  5  2  0  0  0  0
  4  5  1  0  0  0  0
  5  6  1  0  0  0  0
  4  7  1  0  0  0  0
  5  7  1  0  0  0  0
  6  7  1  0  0  0  0
  6  8  1  0  0  0  0
  8 10  2  0  0  0  0
  9 10  1  0  0  0  0
  9 11  1  0  0  0  0
 10 11  1  0  0  0  0
  9 12  1  0  0  0  0
 11 12  1  0  0  0  0
 11 13  1  0  0  0  0
 12 13  1  0  0  0  0
 12 14  1  0  0  0  0
 13 14  1  0  0  0  0
 13 15  2  0  0  0  0
 14 15  1  0  0  0  0
 16 17  1  0  0  0  0
  2 18  1  0  0  0  0
  4 18  1  0  0  0  0
 16 18  1  0  0  0  0
 17 19  1  0  0  0  0
  4 20  1  0  0  0  0
  7 20  1  0  0  0  0
 18 20  1  0  0  0  0
  6 21  1  0  0  0  0
  7 21  1  0  0  0  0
 20 21  1  0  0  0  0
 21 23  1  0  0  0  0
 21 24  1  0  0  0  0
 23 24  1  0  0  0  0
  8 25  1  0  0  0  0
  9 25  1  0  0  0  0
 10 25  1  0  0  0  0
 23 25  1  0  0  0  0
  9 26  1  0  0  0  0
 12 26  1  0  0  0  0
 25 26  1  0  0  0  0
 12 28  1  0  0  0  0
 26 28  1  0  0  0  0
 26 29  1  0  0  0  0
 27 29  1  0  0  0  0
 28 29  1  0  0  0  0
 28 30  1  0  0  0  0
 29 30  1  0  0  0  0
 17 31  1  0  0  0  0
 31 32  1  0  0  0  0
 17 33  1  0  0  0  0
 19 33  1  0  0  0  0
 31 33  1  0  0  0  0
 32 33  1  0  0  0  0
 32 34  1  0  0  0  0
 19 35  1  0  0  0  0
 22 35  1  0  0  0  0
 33 35  1  0  0  0  0
 34 35  1  0  0  0  0
 22 36  1  0  0  0  0
 34 36  1  0  0  0  0
 35 36  1  0  0  0  0
 34 37  1  0  0  0  0
 36 37  1  0  0  0  0
 36 38  1  0  0  0  0
 37 38  1  0  0  0  0
 38 39  1  0  0  0  0
 24 40  1  0  0  0  0
 38 40  1  0  0  0  0
 39 40  1  0  0  0  0
 23 41  1  0  0  0  0
 24 41  1  0  0  0  0
 27 41  1  0  0  0  0
 40 41  1  0  0  0  0
 39 42  1  0  0  0  0
 40 42  1  0  0  0  0
 41 42  1  0  0  0  0
 27 43  1  0  0  0  0
 29 43  1  0  0  0  0
 42 44  1  0  0  0  0
 43 45  1  0  0  0  0
 44 45  1  0  0  0  0
  1 46  1  0  0  0  0
  2 47  1  0  0  0  0
  9 48  1  0  0  0  0
  7 49  1  0  0  0  0
 14 50  1  0  0  0  0
 15 51  1  0  0  0  0
 16 52  1  0  0  0  0
 19 53  1  0  0  0  0
 24 54  1  0  0  0  0
 22 55  1  0  0  0  0
 27 56  1  0  0  0  0
 30 57  1  0  0  0  0
 31 58  1  0  0  0  0
 32 59  1  0  0  0  0
 39 60  1  0  0  0  0
 37 61  1  0  0  0  0
 44 62  1  0  0  0  0
 45 63  1  0  0  0  0
M  END
