 xtb: 6.7.1 (edcfbbe)
          09242620043D

 60110  0     0  0            999 V2000
   -5.7947    3.6126    0.2446 B   0  0  0  0  0  0  0  0  0  0  0  0
   -5.8243    1.9264   -0.0533 B   0  0  0  0  0  0  0  0  0  0  0  0
   -4.3198    4.4158   -0.1390 B   0  0  0  0  0  0  0  0  0  0  0  0
   -4.3549    2.7376    0.0539 B   0  0  0  0  0  0  0  0  0  0  0  0
   -4.3849    1.0423    0.1637 B   0  0  0  0  0  0  0  0  0  0  0  0
   -5.8873   -1.4708    0.0173 B   0  0  0  0  0  0  0  0  0  0  0  0
   -5.9213   -3.1382    0.4207 B   0  0  0  0  0  0  0  0  0  0  0  0
   -4.4163   -0.6309    0.2018 B   0  0  0  0  0  0  0  0  0  0  0  0
   -4.4492   -2.3296    0.1733 B   0  0  0  0  0  0  0  0  0  0  0  0
   -4.4776   -4.0150    0.0712 B   0  0  0  0  0  0  0  0  0  0  0  0
   -2.8657    3.5654    0.0342 B   0  0  0  0  0  0  0  0  0  0  0  0
   -2.9009    1.8597    0.1518 B   0  0  0  0  0  0  0  0  0  0  0  0
   -1.3922    4.3718    0.2578 B   0  0  0  0  0  0  0  0  0  0  0  0
   -1.4233    2.6854    0.1364 B   0  0  0  0  0  0  0  0  0  0  0  0
   -1.4540    0.9882    0.0636 B   0  0  0  0  0  0  0  0  0  0  0  0
   -2.9642   -1.5014    0.2640 B   0  0  0  0  0  0  0  0  0  0  0  0
   -2.9921   -3.2124    0.1930 B   0  0  0  0  0  0  0  0  0  0  0  0
   -1.4855   -0.6921    0.1087 B   0  0  0  0  0  0  0  0  0  0  0  0
   -1.5181   -2.3806    0.3074 B   0  0  0  0  0  0  0  0  0  0  0  0
   -1.5517   -4.0588    0.4947 B   0  0  0  0  0  0  0  0  0  0  0  0
    0.0595    3.5114    0.1063 B   0  0  0  0  0  0  0  0  0  0  0  0
    0.0274    1.8043    0.1190 B   0  0  0  0  0  0  0  0  0  0  0  0
    1.5402    4.3079   -0.1048 B   0  0  0  0  0  0  0  0  0  0  0  0
    1.5082    2.6292    0.0884 B   0  0  0  0  0  0  0  0  0  0  0  0
    1.4754    0.9365    0.1985 B   0  0  0  0  0  0  0  0  0  0  0  0
   -0.0351   -1.5609    0.1362 B   0  0  0  0  0  0  0  0  0  0  0  0
   -0.0685   -3.2577    0.4037 B   0  0  0  0  0  0  0  0  0  0  0  0
    1.4441   -0.7434    0.2200 B   0  0  0  0  0  0  0  0  0  0  0  0
    1.4124   -2.4366    0.2986 B   0  0  0  0  0  0  0  0  0  0  0  0
    1.3804   -4.1193    0.4308 B   0  0  0  0  0  0  0  0  0  0  0  0
    2.9850    3.4588    0.1543 B   0  0  0  0  0  0  0  0  0  0  0  0
    2.9563    1.7500    0.1435 B   0  0  0  0  0  0  0  0  0  0  0  0
    4.4661    4.2617    0.3325 B   0  0  0  0  0  0  0  0  0  0  0  0
    4.4384    2.5770    0.2477 B   0  0  0  0  0  0  0  0  0  0  0  0
    4.4054    0.8785    0.2109 B   0  0  0  0  0  0  0  0  0  0  0  0
    2.8930   -1.6106    0.2946 B   0  0  0  0  0  0  0  0  0  0  0  0
    2.8587   -3.3208    0.2188 B   0  0  0  0  0  0  0  0  0  0  0  0
    4.3743   -0.7956    0.1750 B   0  0  0  0  0  0  0  0  0  0  0  0
    4.3445   -2.4934    0.1689 B   0  0  0  0  0  0  0  0  0  0  0  0
    4.3120   -4.1781    0.1259 B   0  0  0  0  0  0  0  0  0  0  0  0
    5.9139    3.3879    0.0005 B   0  0  0  0  0  0  0  0  0  0  0  0
    5.8787    1.7158    0.3865 B   0  0  0  0  0  0  0  0  0  0  0  0
    5.8177   -1.6872    0.0543 B   0  0  0  0  0  0  0  0  0  0  0  0
    5.7843   -3.3555    0.4919 B   0  0  0  0  0  0  0  0  0  0  0  0
   -6.7173    4.2225    0.6365 H   0  0  0  0  0  0  0  0  0  0  0  0
   -6.7884    1.4331   -0.4949 H   0  0  0  0  0  0  0  0  0  0  0  0
   -4.3552    5.5259   -0.5226 H   0  0  0  0  0  0  0  0  0  0  0  0
   -6.8352   -0.9775   -0.4598 H   0  0  0  0  0  0  0  0  0  0  0  0
   -6.8702   -3.6806    0.8476 H   0  0  0  0  0  0  0  0  0  0  0  0
   -4.5570   -5.1302   -0.2912 H   0  0  0  0  0  0  0  0  0  0  0  0
   -1.3827    5.5255    0.4855 H   0  0  0  0  0  0  0  0  0  0  0  0
   -1.5952   -5.1898    0.8149 H   0  0  0  0  0  0  0  0  0  0  0  0
    1.5680    5.4503   -0.3832 H   0  0  0  0  0  0  0  0  0  0  0  0
    1.3684   -5.2858    0.5829 H   0  0  0  0  0  0  0  0  0  0  0  0
    4.5393    5.3762    0.6988 H   0  0  0  0  0  0  0  0  0  0  0  0
    4.3578   -5.2956   -0.2384 H   0  0  0  0  0  0  0  0  0  0  0  0
    6.8629    3.9436   -0.4072 H   0  0  0  0  0  0  0  0  0  0  0  0
    6.8083    1.2120    0.8911 H   0  0  0  0  0  0  0  0  0  0  0  0
    6.7874   -1.2370   -0.4272 H   0  0  0  0  0  0  0  0  0  0  0  0
    6.7061   -3.9212    0.9465 H   0  0  0  0  0  0  0  0  0  0  0  0
  1  2  1  0  0  0  0
  1  3  1  0  0  0  0
  1  4  1  0  0  0  0
  2  4  1  0  0  0  0
  3  4  1  0  0  0  0
  2  5  1  0  0  0  0
  4  5  1  0  0  0  0
  6  7  1  0  0  0  0
  5  8  1  0  0  0  0
  6  8  1  0  0  0  0
  6  9  1  0  0  0  0
  7  9  1  0  0  0  0
  8  9  1  0  0  0  0
  7 10  1  0  0  0  0
  9 10  1  0  0  0  0
  3 11  1  0  0  0  0
  4 11  1  0  0  0  0
  4 12  1  0  0  0  0
  5 12  1  0  0  0  0
 11 12  1  0  0  0  0
 11 13  1  0  0  0  0
 11 14  1  0  0  0  0
 12 14  1  0  0  0  0
 13 14  1  0  0  0  0
 12 15  1  0  0  0  0
 14 15  1  0  0  0  0
  8 16  1  0  0  0  0
  9 16  1  0  0  0  0
  9 17  1  0  0  0  0
 10 17  1  0  0  0  0
 16 17  1  0  0  0  0
 15 18  1  0  0  0  0
 16 18  1  0  0  0  0
 16 19  1  0  0  0  0
 17 19  1  0  0  0  0
 18 19  1  0  0  0  0
 17 20  1  0  0  0  0
 19 20  1  0  0  0  0
 13 21  1  0  0  0  0
 14 21  1  0  0  0  0
 14 22  1  0  0  0  0
 15 22  1  0  0  0  0
 21 22  1  0  0  0  0
 21 23  1  0  0  0  0
 21 24  1  0  0  0  0
 22 24  1  0  0  0  0
 23 24  1  0  0  0  0
 22 25  1  0  0  0  0
 24 25  1  0  0  0  0
 18 26  1  0  0  0  0
 19 26  1  0  0  0  0
 19 27  1  0  0  0  0
 20 27  1  0  0  0  0
 26 27  1  0  0  0  0
 25 28  1  0  0  0  0
 26 28  1  0  0  0  0
 26 29  1  0  0  0  0
 27 29  1  0  0  0  0
 28 29  1  0  0  0  0
 27 30  1  0  0  0  0
 29 30  1  0  0  0  0
 23 31  1  0  0  0  0
 24 31  1  0  0  0  0
 24 32  1  0  0  0  0
 25 32  1  0  0  0  0
 31 32  1  0  0  0  0
 31 33  1  0  0  0  0
 31 34  1  0  0  0  0
 32 34  1  0  0  0  0
 33 34  1  0  0  0  0
 32 35  1  0  0  0  0
 34 35  1  0  0  0  0
 28 36  1  0  0  0  0
 29 36  1  0  0  0  0
 29 37  1  0  0  0  0
 30 37  1  0  0  0  0
 36 37  1  0  0  0  0
 35 38  1  0  0  0  0
 36 38  1  0  0  0  0
 36 39  1  0  0  0  0
 37 39  1  0  0  0  0
 38 39  1  0  0  0  0
 37 40  1  0  0  0  0
 39 40  1  0  0  0  0
 33 41  1  0  0  0  0
 34 41  1  0  0  0  0
 34 42  1  0  0  0  0
 35 42  1  0  0  0  0
 41 42  1  0  0  0  0
 38 43  1  0  0  0  0
 39 43  1  0  0  0  0
 39 44  1  0  0  0  0
 40 44  1  0  0  0  0
 43 44  1  0  0  0  0
  1 45  1  0  0  0  0
  2 46  1  0  0  0  0
  3 47  1  0  0  0  0
  6 48  1  0  0  0  0
  7 49  1  0  0  0  0
 10 50  1  0  0  0  0
 13 51  1  0  0  0  0
 20 52  1  0  0  0  0
 23 53  1  0  0  0  0
 30 54  1  0  0  0  0
 33 55  1  0  0  0  0
 40 56  1  0  0  0  0
 41 57  1  0  0  0  0
 42 58  1  0  0  0  0
 43 59  1  0  0  0  0
 44 60  1  0  0  0  0
M  END
