 xtb: 6.7.1pre (5071a88)
          08312620193D

 89120  0     0  0            999 V2000
    5.7277   -0.2494    2.8311 C   0  0  0  0  0  0  0  0  0  0  0  0
    4.2903   -0.3422    3.2569 C   0  0  0  0  0  0  0  0  0  0  0  0
    3.9599   -0.8978    4.4954 C   0  0  0  0  0  0  0  0  0  0  0  0
    2.6276   -0.9639    4.9200 C   0  0  0  0  0  0  0  0  0  0  0  0
    1.6034   -0.4557    4.0978 C   0  0  0  0  0  0  0  0  0  0  0  0
    0.2511   -0.4557    4.3908 N   0  0  0  0  0  0  0  0  0  0  0  0
   -0.4405    0.1001    3.4136 C   0  0  0  0  0  0  0  0  0  0  0  0
   -1.9125    0.2456    3.4347 C   0  0  0  0  0  0  0  0  0  0  0  0
   -2.6529    0.8450    2.4047 C   0  0  0  0  0  0  0  0  0  0  0  0
   -4.0490    0.9507    2.4849 C   0  0  0  0  0  0  0  0  0  0  0  0
   -4.7474    0.4262    3.5720 C   0  0  0  0  0  0  0  0  0  0  0  0
   -6.1230    0.6414    3.6994 N   0  0  0  0  0  0  0  0  0  0  0  0
   -4.0172   -0.1149    4.6283 C   0  0  0  0  0  0  0  0  0  0  0  0
   -2.6231   -0.2236    4.5519 C   0  0  0  0  0  0  0  0  0  0  0  0
    0.5163    0.6482    2.0889 S   0  0  0  0  0  0  0  0  0  0  0  0
    1.9470    0.1088    2.8720 C   0  0  0  0  0  0  0  0  0  0  0  0
    3.2808    0.1819    2.4337 C   0  0  0  0  0  0  0  0  0  0  0  0
    6.3095   -1.0844    3.2356 H   0  0  0  0  0  0  0  0  0  0  0  0
    5.8154   -0.2914    1.7404 H   0  0  0  0  0  0  0  0  0  0  0  0
    6.1624    0.6902    3.1856 H   0  0  0  0  0  0  0  0  0  0  0  0
    4.7385   -1.2888    5.1475 H   0  0  0  0  0  0  0  0  0  0  0  0
    2.3742   -1.4010    5.8806 H   0  0  0  0  0  0  0  0  0  0  0  0
   -2.1683    1.2561    1.5233 H   0  0  0  0  0  0  0  0  0  0  0  0
   -4.5851    1.4506    1.6821 H   0  0  0  0  0  0  0  0  0  0  0  0
   -6.5841   -0.0107    4.3263 H   0  0  0  0  0  0  0  0  0  0  0  0
   -6.6097    0.7332    2.8135 H   0  0  0  0  0  0  0  0  0  0  0  0
   -4.5228   -0.4616    5.5256 H   0  0  0  0  0  0  0  0  0  0  0  0
   -2.0877   -0.6716    5.3881 H   0  0  0  0  0  0  0  0  0  0  0  0
    3.5193    0.6346    1.4753 H   0  0  0  0  0  0  0  0  0  0  0  0
   -7.5000   -4.5000    0.0000 B   0  0  0  0  0  0  0  0  0  0  0  0
   -4.5000   -4.5000    0.0000 B   0  0  0  0  0  0  0  0  0  0  0  0
   -1.5000   -4.5000    0.0000 B   0  0  0  0  0  0  0  0  0  0  0  0
    1.5000   -4.5000    0.0000 B   0  0  0  0  0  0  0  0  0  0  0  0
    4.5000   -4.5000    0.0000 B   0  0  0  0  0  0  0  0  0  0  0  0
    7.5000   -4.5000    0.0000 B   0  0  0  0  0  0  0  0  0  0  0  0
   -7.5000   -3.0000    0.0000 B   0  0  0  0  0  0  0  0  0  0  0  0
   -4.5000   -3.0000    0.0000 B   0  0  0  0  0  0  0  0  0  0  0  0
   -1.5000   -3.0000    0.0000 B   0  0  0  0  0  0  0  0  0  0  0  0
    1.5000   -3.0000    0.0000 B   0  0  0  0  0  0  0  0  0  0  0  0
    4.5000   -3.0000    0.0000 B   0  0  0  0  0  0  0  0  0  0  0  0
    7.5000   -3.0000    0.0000 B   0  0  0  0  0  0  0  0  0  0  0  0
   -7.5000   -1.5000    0.0000 B   0  0  0  0  0  0  0  0  0  0  0  0
   -4.5000   -1.5000    0.0000 B   0  0  0  0  0  0  0  0  0  0  0  0
   -1.5000   -1.5000    0.0000 B   0  0  0  0  0  0  0  0  0  0  0  0
    1.5000   -1.5000    0.0000 B   0  0  0  0  0  0  0  0  0  0  0  0
    4.5000   -1.5000    0.0000 B   0  0  0  0  0  0  0  0  0  0  0  0
    7.5000   -1.5000    0.0000 B   0  0  0  0  0  0  0  0  0  0  0  0
   -7.5000    0.0000    0.0000 B   0  0  0  0  0  0  0  0  0  0  0  0
   -4.5000    0.0000    0.0000 B   0  0  0  0  0  0  0  0  0  0  0  0
   -1.5000    0.0000    0.0000 B   0  0  0  0  0  0  0  0  0  0  0  0
    1.5000    0.0000    0.0000 B   0  0  0  0  0  0  0  0  0  0  0  0
    4.5000    0.0000    0.0000 B   0  0  0  0  0  0  0  0  0  0  0  0
    7.5000    0.0000    0.0000 B   0  0  0  0  0  0  0  0  0  0  0  0
   -7.5000    1.5000    0.0000 B   0  0  0  0  0  0  0  0  0  0  0  0
   -4.5000    1.5000    0.0000 B   0  0  0  0  0  0  0  0  0  0  0  0
   -1.5000    1.5000    0.0000 B   0  0  0  0  0  0  0  0  0  0  0  0
    1.5000    1.5000    0.0000 B   0  0  0  0  0  0  0  0  0  0  0  0
    4.5000    1.5000    0.0000 B   0  0  0  0  0  0  0  0  0  0  0  0
    7.5000    1.5000    0.0000 B   0  0  0  0  0  0  0  0  0  0  0  0
   -7.5000    3.0000    0.0000 B   0  0  0  0  0  0  0  0  0  0  0  0
   -4.5000    3.0000    0.0000 B   0  0  0  0  0  0  0  0  0  0  0  0
   -1.5000    3.0000    0.0000 B   0  0  0  0  0  0  0  0  0  0  0  0
    1.5000    3.0000    0.0000 B   0  0  0  0  0  0  0  0  0  0  0  0
    4.5000    3.0000    0.0000 B   0  0  0  0  0  0  0  0  0  0  0  0
    7.5000    3.0000    0.0000 B   0  0  0  0  0  0  0  0  0  0  0  0
   -7.5000    4.5000    0.0000 B   0  0  0  0  0  0  0  0  0  0  0  0
   -4.5000    4.5000    0.0000 B   0  0  0  0  0  0  0  0  0  0  0  0
   -1.5000    4.5000    0.0000 B   0  0  0  0  0  0  0  0  0  0  0  0
    1.5000    4.5000    0.0000 B   0  0  0  0  0  0  0  0  0  0  0  0
    4.5000    4.5000    0.0000 B   0  0  0  0  0  0  0  0  0  0  0  0
    7.5000    4.5000    0.0000 B   0  0  0  0  0  0  0  0  0  0  0  0
   -6.0000   -3.7500    0.0000 B   0  0  0  0  0  0  0  0  0  0  0  0
   -3.0000   -3.7500    0.0000 B   0  0  0  0  0  0  0  0  0  0  0  0
    0.0000   -3.7500    0.0000 B   0  0  0  0  0  0  0  0  0  0  0  0
    3.0000   -3.7500    0.0000 B   0  0  0  0  0  0  0  0  0  0  0  0
    6.0000   -3.7500    0.0000 B   0  0  0  0  0  0  0  0  0  0  0  0
   -6.0000    3.7500    0.0000 B   0  0  0  0  0  0  0  0  0  0  0  0
   -3.0000    3.7500    0.0000 B   0  0  0  0  0  0  0  0  0  0  0  0
    0.0000    3.7500    0.0000 B   0  0  0  0  0  0  0  0  0  0  0  0
    3.0000    3.7500    0.0000 B   0  0  0  0  0  0  0  0  0  0  0  0
    6.0000    3.7500    0.0000 B   0  0  0  0  0  0  0  0  0  0  0  0
   -6.0000    0.0000    0.0000 B   0  0  0  0  0  0  0  0  0  0  0  0
   -8.6000   -4.5000    0.0000 H   0  0  0  0  0  0  0  0  0  0  0  0
   -8.6000   -1.5000    0.0000 H   0  0  0  0  0  0  0  0  0  0  0  0
   -8.6000    1.5000    0.0000 H   0  0  0  0  0  0  0  0  0  0  0  0
   -8.6000    4.5000    0.0000 H   0  0  0  0  0  0  0  0  0  0  0  0
    8.6000   -4.5000    0.0000 H   0  0  0  0  0  0  0  0  0  0  0  0
    8.6000   -1.5000    0.0000 H   0  0  0  0  0  0  0  0  0  0  0  0
    8.6000    1.5000    0.0000 H   0  0  0  0  0  0  0  0  0  0  0  0
  1  2  1  0  0  0  0
  2  3  4  0  0  0  0
  3  4  4  0  0  0  0
  4  5  4  0  0  0  0
  5  6  4  0  0  0  0
  6  7  4  0  0  0  0
  7  8  1  0  0  0  0
  8  9  4  0  0  0  0
  9 10  4  0  0  0  0
 10 11  4  0  0  0  0
 11 12  1  0  0  0  0
 11 13  4  0  0  0  0
  8 14  4  0  0  0  0
 13 14  4  0  0  0  0
  7 15  1  0  0  0  0
  5 16  4  0  0  0  0
 15 16  1  0  0  0  0
  2 17  4  0  0  0  0
 16 17  4  0  0  0  0
  1 18  1  0  0  0  0
  1 19  1  0  0  0  0
  1 20  1  0  0  0  0
  3 21  1  0  0  0  0
  4 22  1  0  0  0  0
  9 23  1  0  0  0  0
 10 24  1  0  0  0  0
 12 25  1  0  0  0  0
 12 26  1  0  0  0  0
 13 27  1  0  0  0  0
 14 28  1  0  0  0  0
 17 29  1  0  0  0  0
 30 36  1  0  0  0  0
 31 37  1  0  0  0  0
 32 38  1  0  0  0  0
 33 39  1  0  0  0  0
 34 40  1  0  0  0  0
 35 41  1  0  0  0  0
 36 42  1  0  0  0  0
 37 43  1  0  0  0  0
 38 44  1  0  0  0  0
 39 45  1  0  0  0  0
 40 46  1  0  0  0  0
 41 47  1  0  0  0  0
 42 48  1  0  0  0  0
 43 49  1  0  0  0  0
 44 50  2  0  0  0  0
 45 51  2  0  0  0  0
 46 52  2  0  0  0  0
 47 53  1  0  0  0  0
 48 54  1  0  0  0  0
 49 55  1  0  0  0  0
 50 56  2  0  0  0  0
 51 57  2  0  0  0  0
 52 58  2  0  0  0  0
 53 59  2  0  0  0  0
 54 60  1  0  0  0  0
 55 61  1  0  0  0  0
 56 62  1  0  0  0  0
 57 63  1  0  0  0  0
 58 64  1  0  0  0  0
 59 65  1  0  0  0  0
 60 66  1  0  0  0  0
 61 67  1  0  0  0  0
 62 68  1  0  0  0  0
 63 69  1  0  0  0  0
 64 70  1  0  0  0  0
 65 71  2  0  0  0  0
 30 72  1  0  0  0  0
 31 72  1  0  0  0  0
 36 72  1  0  0  0  0
 37 72  1  0  0  0  0
 31 73  1  0  0  0  0
 32 73  1  0  0  0  0
 37 73  1  0  0  0  0
 38 73  1  0  0  0  0
 32 74  1  0  0  0  0
 33 74  1  0  0  0  0
 38 74  1  0  0  0  0
 39 74  1  0  0  0  0
 33 75  1  0  0  0  0
 34 75  1  0  0  0  0
 39 75  1  0  0  0  0
 40 75  1  0  0  0  0
 34 76  1  0  0  0  0
 35 76  1  0  0  0  0
 40 76  1  0  0  0  0
 41 76  1  0  0  0  0
 60 77  1  0  0  0  0
 61 77  1  0  0  0  0
 66 77  1  0  0  0  0
 67 77  1  0  0  0  0
 61 78  1  0  0  0  0
 62 78  1  0  0  0  0
 67 78  1  0  0  0  0
 68 78  1  0  0  0  0
 62 79  1  0  0  0  0
 63 79  1  0  0  0  0
 68 79  1  0  0  0  0
 69 79  1  0  0  0  0
 63 80  1  0  0  0  0
 64 80  1  0  0  0  0
 69 80  1  0  0  0  0
 70 80  1  0  0  0  0
 64 81  1  0  0  0  0
 65 81  1  0  0  0  0
 70 81  1  0  0  0  0
 71 81  1  0  0  0  0
 42 82  1  0  0  0  0
 43 82  1  0  0  0  0
 48 82  1  0  0  0  0
 49 82  1  0  0  0  0
 54 82  1  0  0  0  0
 55 82  1  0  0  0  0
 30 83  1  0  0  0  0
 42 84  1  0  0  0  0
 54 85  1  0  0  0  0
 66 86  1  0  0  0  0
 35 87  1  0  0  0  0
 47 88  1  0  0  0  0
 59 89  1  0  0  0  0
M  END
