 xtb: 6.7.1pre (5071a88)
          09012620283D

 84121  0     0  0            999 V2000
    5.7277   -0.2494    7.5315 C   0  0  0  0  0  0  0  0  0  0  0  0
    4.2903   -0.3422    7.9572 C   0  0  0  0  0  0  0  0  0  0  0  0
    3.9599   -0.8978    9.1957 C   0  0  0  0  0  0  0  0  0  0  0  0
    2.6276   -0.9639    9.6204 C   0  0  0  0  0  0  0  0  0  0  0  0
    1.6034   -0.4557    8.7981 C   0  0  0  0  0  0  0  0  0  0  0  0
    0.2511   -0.4557    9.0912 N   0  0  0  0  0  0  0  0  0  0  0  0
   -0.4405    0.1001    8.1139 C   0  0  0  0  0  0  0  0  0  0  0  0
   -1.9125    0.2456    8.1351 C   0  0  0  0  0  0  0  0  0  0  0  0
   -2.6529    0.8450    7.1051 C   0  0  0  0  0  0  0  0  0  0  0  0
   -4.0490    0.9507    7.1853 C   0  0  0  0  0  0  0  0  0  0  0  0
   -4.7474    0.4262    8.2724 C   0  0  0  0  0  0  0  0  0  0  0  0
   -6.1230    0.6414    8.3997 N   0  0  0  0  0  0  0  0  0  0  0  0
   -4.0172   -0.1149    9.3286 C   0  0  0  0  0  0  0  0  0  0  0  0
   -2.6231   -0.2236    9.2522 C   0  0  0  0  0  0  0  0  0  0  0  0
    0.5163    0.6482    6.7892 S   0  0  0  0  0  0  0  0  0  0  0  0
    1.9470    0.1088    7.5724 C   0  0  0  0  0  0  0  0  0  0  0  0
    3.2808    0.1819    7.1340 C   0  0  0  0  0  0  0  0  0  0  0  0
    6.3095   -1.0844    7.9359 H   0  0  0  0  0  0  0  0  0  0  0  0
    5.8154   -0.2914    6.4407 H   0  0  0  0  0  0  0  0  0  0  0  0
    6.1624    0.6902    7.8859 H   0  0  0  0  0  0  0  0  0  0  0  0
    4.7385   -1.2888    9.8478 H   0  0  0  0  0  0  0  0  0  0  0  0
    2.3742   -1.4010   10.5810 H   0  0  0  0  0  0  0  0  0  0  0  0
   -2.1683    1.2561    6.2236 H   0  0  0  0  0  0  0  0  0  0  0  0
   -4.5851    1.4506    6.3824 H   0  0  0  0  0  0  0  0  0  0  0  0
   -6.5841   -0.0107    9.0267 H   0  0  0  0  0  0  0  0  0  0  0  0
   -6.6097    0.7332    7.5138 H   0  0  0  0  0  0  0  0  0  0  0  0
   -4.5228   -0.4616   10.2259 H   0  0  0  0  0  0  0  0  0  0  0  0
   -2.0877   -0.6716   10.0884 H   0  0  0  0  0  0  0  0  0  0  0  0
    3.5193    0.6346    6.1757 H   0  0  0  0  0  0  0  0  0  0  0  0
   -4.7806   -2.6045    0.3173 B   0  0  0  0  0  0  0  0  0  0  0  0
   -4.5695   -1.3567   -0.6480 B   0  0  0  0  0  0  0  0  0  0  0  0
   -4.4639   -0.2474   -1.8829 B   0  0  0  0  0  0  0  0  0  0  0  0
   -3.3965   -2.6620   -0.5028 B   0  0  0  0  0  0  0  0  0  0  0  0
   -3.0380    0.1776   -1.4048 B   0  0  0  0  0  0  0  0  0  0  0  0
   -4.3909    0.3426   -0.1924 B   0  0  0  0  0  0  0  0  0  0  0  0
   -5.0310    1.4031    0.8192 B   0  0  0  0  0  0  0  0  0  0  0  0
   -4.6201    2.9864    0.9976 B   0  0  0  0  0  0  0  0  0  0  0  0
   -2.8089    0.5128    0.1995 B   0  0  0  0  0  0  0  0  0  0  0  0
   -3.2186    3.2275    1.7932 B   0  0  0  0  0  0  0  0  0  0  0  0
   -2.1611   -3.7758   -0.5843 B   0  0  0  0  0  0  0  0  0  0  0  0
   -1.8769   -2.2481   -0.9334 B   0  0  0  0  0  0  0  0  0  0  0  0
   -1.6972   -0.6133   -0.8358 B   0  0  0  0  0  0  0  0  0  0  0  0
   -0.5844   -3.2190   -0.8350 B   0  0  0  0  0  0  0  0  0  0  0  0
   -0.2198   -0.1484   -0.3118 B   0  0  0  0  0  0  0  0  0  0  0  0
   -1.3950    0.0358    0.8521 B   0  0  0  0  0  0  0  0  0  0  0  0
   -1.7757    1.6621    0.7592 B   0  0  0  0  0  0  0  0  0  0  0  0
   -1.8975    3.2370    0.8826 B   0  0  0  0  0  0  0  0  0  0  0  0
   -0.2153    1.0372    1.0697 B   0  0  0  0  0  0  0  0  0  0  0  0
   -0.7521    4.3480    0.5584 B   0  0  0  0  0  0  0  0  0  0  0  0
    0.8265   -4.1129   -0.7400 B   0  0  0  0  0  0  0  0  0  0  0  0
    0.9251   -2.5054   -0.7497 B   0  0  0  0  0  0  0  0  0  0  0  0
    1.2144   -0.9490   -0.5870 B   0  0  0  0  0  0  0  0  0  0  0  0
    2.2007   -3.4026   -0.1682 B   0  0  0  0  0  0  0  0  0  0  0  0
    2.6220   -0.1957   -0.2930 B   0  0  0  0  0  0  0  0  0  0  0  0
    1.2341    0.5516    0.1426 B   0  0  0  0  0  0  0  0  0  0  0  0
    1.1248    2.0009    1.0430 B   0  0  0  0  0  0  0  0  0  0  0  0
    0.5366    3.4372    0.6180 B   0  0  0  0  0  0  0  0  0  0  0  0
    2.4580    1.6726    0.0875 B   0  0  0  0  0  0  0  0  0  0  0  0
    1.2136    3.0171   -0.8530 B   0  0  0  0  0  0  0  0  0  0  0  0
    3.2202   -3.8508    1.1044 B   0  0  0  0  0  0  0  0  0  0  0  0
    3.6240   -2.6535    0.0637 B   0  0  0  0  0  0  0  0  0  0  0  0
    4.0250   -1.1219   -0.2366 B   0  0  0  0  0  0  0  0  0  0  0  0
    4.4174   -2.8355    1.4203 B   0  0  0  0  0  0  0  0  0  0  0  0
    5.3636   -0.2419   -0.6898 B   0  0  0  0  0  0  0  0  0  0  0  0
    4.1041    0.5310   -0.0135 B   0  0  0  0  0  0  0  0  0  0  0  0
    4.0181    2.3218   -0.0338 B   0  0  0  0  0  0  0  0  0  0  0  0
    2.8218    3.0968   -0.9129 B   0  0  0  0  0  0  0  0  0  0  0  0
    5.4220    1.4583   -0.1853 B   0  0  0  0  0  0  0  0  0  0  0  0
    4.2961    3.5501   -1.0140 B   0  0  0  0  0  0  0  0  0  0  0  0
   -5.1687   -3.0949    1.3107 H   0  0  0  0  0  0  0  0  0  0  0  0
   -5.7161   -2.0764   -0.3935 H   0  0  0  0  0  0  0  0  0  0  0  0
   -5.2640   -0.1207   -2.7417 H   0  0  0  0  0  0  0  0  0  0  0  0
   -5.7711    1.0074    1.6646 H   0  0  0  0  0  0  0  0  0  0  0  0
   -5.3645    3.8431    0.6720 H   0  0  0  0  0  0  0  0  0  0  0  0
   -3.2343    3.2250    2.9757 H   0  0  0  0  0  0  0  0  0  0  0  0
   -2.3593   -4.9262   -0.4732 H   0  0  0  0  0  0  0  0  0  0  0  0
   -0.8965    5.4755    0.2443 H   0  0  0  0  0  0  0  0  0  0  0  0
    0.8223   -5.2498   -1.0233 H   0  0  0  0  0  0  0  0  0  0  0  0
    0.5537    2.6943   -1.7837 H   0  0  0  0  0  0  0  0  0  0  0  0
    2.9703   -4.8176    1.7172 H   0  0  0  0  0  0  0  0  0  0  0  0
    5.2631   -2.5125    2.1565 H   0  0  0  0  0  0  0  0  0  0  0  0
    6.3848   -0.6467   -1.0956 H   0  0  0  0  0  0  0  0  0  0  0  0
    6.5032    1.8382    0.0650 H   0  0  0  0  0  0  0  0  0  0  0  0
    5.1389    4.2524   -1.4154 H   0  0  0  0  0  0  0  0  0  0  0  0
  1  2  1  0  0  0  0
  2  3  4  0  0  0  0
  3  4  4  0  0  0  0
  4  5  4  0  0  0  0
  5  6  4  0  0  0  0
  6  7  2  0  0  0  0
  7  8  1  0  0  0  0
  8  9  4  0  0  0  0
  9 10  4  0  0  0  0
 10 11  4  0  0  0  0
 11 12  1  0  0  0  0
 11 13  4  0  0  0  0
  8 14  4  0  0  0  0
 13 14  4  0  0  0  0
  7 15  1  0  0  0  0
  5 16  4  0  0  0  0
 15 16  1  0  0  0  0
  2 17  4  0  0  0  0
 16 17  4  0  0  0  0
  1 18  1  0  0  0  0
  1 19  1  0  0  0  0
  1 20  1  0  0  0  0
  3 21  1  0  0  0  0
  4 22  1  0  0  0  0
  9 23  1  0  0  0  0
 10 24  1  0  0  0  0
 12 25  1  0  0  0  0
 12 26  1  0  0  0  0
 13 27  1  0  0  0  0
 14 28  1  0  0  0  0
 17 29  1  0  0  0  0
 30 31  1  0  0  0  0
 31 32  1  0  0  0  0
 30 33  1  0  0  0  0
 31 33  1  0  0  0  0
 32 34  1  0  0  0  0
 31 35  1  0  0  0  0
 32 35  1  0  0  0  0
 34 35  1  0  0  0  0
 35 36  1  0  0  0  0
 36 37  1  0  0  0  0
 34 38  1  0  0  0  0
 35 38  1  0  0  0  0
 37 39  1  0  0  0  0
 33 40  1  0  0  0  0
 33 41  1  0  0  0  0
 40 41  1  0  0  0  0
 34 42  1  0  0  0  0
 38 42  1  0  0  0  0
 41 42  1  0  0  0  0
 40 43  1  0  0  0  0
 41 43  1  0  0  0  0
 42 44  1  0  0  0  0
 38 45  1  0  0  0  0
 42 45  1  0  0  0  0
 44 45  1  0  0  0  0
 38 46  1  0  0  0  0
 45 46  1  0  0  0  0
 39 47  1  0  0  0  0
 46 47  1  0  0  0  0
 44 48  1  0  0  0  0
 45 48  1  0  0  0  0
 46 48  1  0  0  0  0
 47 49  1  0  0  0  0
 43 50  1  0  0  0  0
 43 51  1  0  0  0  0
 50 51  1  0  0  0  0
 44 52  1  0  0  0  0
 51 52  1  0  0  0  0
 50 53  1  0  0  0  0
 51 53  1  0  0  0  0
 52 54  1  0  0  0  0
 44 55  1  0  0  0  0
 48 55  1  0  0  0  0
 52 55  1  0  0  0  0
 54 55  1  0  0  0  0
 48 56  1  0  0  0  0
 55 56  1  0  0  0  0
 49 57  1  0  0  0  0
 56 57  1  0  0  0  0
 54 58  1  0  0  0  0
 55 58  1  0  0  0  0
 56 58  1  0  0  0  0
 57 59  1  0  0  0  0
 53 60  1  0  0  0  0
 53 61  1  0  0  0  0
 60 61  1  0  0  0  0
 54 62  1  0  0  0  0
 61 62  1  0  0  0  0
 60 63  1  0  0  0  0
 61 63  1  0  0  0  0
 62 64  1  0  0  0  0
 54 65  1  0  0  0  0
 62 65  1  0  0  0  0
 64 65  1  0  0  0  0
 58 66  1  0  0  0  0
 65 66  1  0  0  0  0
 58 67  1  0  0  0  0
 59 67  1  0  0  0  0
 66 67  1  0  0  0  0
 64 68  1  0  0  0  0
 65 68  1  0  0  0  0
 66 68  1  0  0  0  0
 66 69  1  0  0  0  0
 67 69  1  0  0  0  0
 30 70  1  0  0  0  0
 30 71  1  0  0  0  0
 31 71  1  0  0  0  0
 32 72  1  0  0  0  0
 36 73  1  0  0  0  0
 37 74  1  0  0  0  0
 39 75  1  0  0  0  0
 40 76  1  0  0  0  0
 49 77  1  0  0  0  0
 50 78  1  0  0  0  0
 59 79  1  0  0  0  0
 60 80  1  0  0  0  0
 63 81  1  0  0  0  0
 64 82  1  0  0  0  0
 68 83  1  0  0  0  0
 69 84  1  0  0  0  0
M  END
