 xtb: 6.7.1pre (5071a88)
          08312621153D

 95150  0     0  0            999 V2000
    5.9879   -0.8995    7.1915 C   0  0  0  0  0  0  0  0  0  0  0  0
    5.6812    0.1417    6.2267 N   0  0  0  0  0  0  0  0  0  0  0  0
    4.3720    0.2990    5.7683 C   0  0  0  0  0  0  0  0  0  0  0  0
    4.1502    1.0780    4.6305 C   0  0  0  0  0  0  0  0  0  0  0  0
    2.8534    1.3288    4.1583 C   0  0  0  0  0  0  0  0  0  0  0  0
    1.7287    0.8473    4.8005 C   0  0  0  0  0  0  0  0  0  0  0  0
    0.5391    1.1511    4.2468 N   0  0  0  0  0  0  0  0  0  0  0  0
   -0.6369    0.7561    4.7727 C   0  0  0  0  0  0  0  0  0  0  0  0
   -1.7796    1.1409    4.1029 C   0  0  0  0  0  0  0  0  0  0  0  0
   -3.0678    0.7915    4.5461 C   0  0  0  0  0  0  0  0  0  0  0  0
   -3.2796    0.0186    5.6953 C   0  0  0  0  0  0  0  0  0  0  0  0
   -4.5603   -0.3149    6.1451 N   0  0  0  0  0  0  0  0  0  0  0  0
   -5.6970   -0.1583    5.2383 C   0  0  0  0  0  0  0  0  0  0  0  0
   -4.7108   -1.3435    7.1739 C   0  0  0  0  0  0  0  0  0  0  0  0
   -2.1182   -0.3582    6.3854 C   0  0  0  0  0  0  0  0  0  0  0  0
   -0.8271   -0.0065    5.9382 C   0  0  0  0  0  0  0  0  0  0  0  0
    0.5706   -0.5665    6.9124 S   0  0  0  0  0  0  0  0  0  0  0  0
    1.9464    0.0960    5.9726 C   0  0  0  0  0  0  0  0  0  0  0  0
    3.2459   -0.1589    6.4527 C   0  0  0  0  0  0  0  0  0  0  0  0
    5.6847   -1.8854    6.8240 H   0  0  0  0  0  0  0  0  0  0  0  0
    7.0691   -0.9235    7.3615 H   0  0  0  0  0  0  0  0  0  0  0  0
    5.5125   -0.7021    8.1575 H   0  0  0  0  0  0  0  0  0  0  0  0
    6.3600    0.1898    5.4703 H   0  0  0  0  0  0  0  0  0  0  0  0
    4.9904    1.5077    4.0898 H   0  0  0  0  0  0  0  0  0  0  0  0
    2.7292    1.9305    3.2602 H   0  0  0  0  0  0  0  0  0  0  0  0
   -1.6824    1.7406    3.2000 H   0  0  0  0  0  0  0  0  0  0  0  0
   -3.9005    1.1560    3.9521 H   0  0  0  0  0  0  0  0  0  0  0  0
   -6.6342   -0.4624    5.7180 H   0  0  0  0  0  0  0  0  0  0  0  0
   -5.5711   -0.7729    4.3401 H   0  0  0  0  0  0  0  0  0  0  0  0
   -5.8338    0.8899    4.9516 H   0  0  0  0  0  0  0  0  0  0  0  0
   -4.3049   -2.3025    6.8334 H   0  0  0  0  0  0  0  0  0  0  0  0
   -5.7651   -1.5020    7.4273 H   0  0  0  0  0  0  0  0  0  0  0  0
   -4.2202   -1.0455    8.1067 H   0  0  0  0  0  0  0  0  0  0  0  0
   -2.1892   -0.9389    7.3002 H   0  0  0  0  0  0  0  0  0  0  0  0
    3.3571   -0.7220    7.3744 H   0  0  0  0  0  0  0  0  0  0  0  0
   -6.3511   -2.8545   -0.3396 B   0  0  0  0  0  0  0  0  0  0  0  0
   -3.8632   -3.4276    0.8712 B   0  0  0  0  0  0  0  0  0  0  0  0
   -1.0552   -4.1651    1.9793 B   0  0  0  0  0  0  0  0  0  0  0  0
    1.6853   -4.2318    1.3549 B   0  0  0  0  0  0  0  0  0  0  0  0
    2.9703   -3.6923    0.6219 B   0  0  0  0  0  0  0  0  0  0  0  0
    5.9076   -3.8486   -0.3800 B   0  0  0  0  0  0  0  0  0  0  0  0
   -4.7612   -2.3307   -0.4078 B   0  0  0  0  0  0  0  0  0  0  0  0
   -2.6199   -2.2111    0.8442 B   0  0  0  0  0  0  0  0  0  0  0  0
   -1.2327   -2.3911    1.7792 B   0  0  0  0  0  0  0  0  0  0  0  0
    0.2814   -3.1446    1.2586 B   0  0  0  0  0  0  0  0  0  0  0  0
    3.1280   -2.1353    0.0337 B   0  0  0  0  0  0  0  0  0  0  0  0
    5.2824   -2.5807   -1.1427 B   0  0  0  0  0  0  0  0  0  0  0  0
   -4.3827   -1.0545   -1.3461 B   0  0  0  0  0  0  0  0  0  0  0  0
   -3.1924   -1.2685   -0.2398 B   0  0  0  0  0  0  0  0  0  0  0  0
   -0.7667   -0.9151    2.1471 B   0  0  0  0  0  0  0  0  0  0  0  0
    0.4341   -1.5098    0.8825 B   0  0  0  0  0  0  0  0  0  0  0  0
    4.2603   -1.2719   -0.6057 B   0  0  0  0  0  0  0  0  0  0  0  0
    6.8452   -2.4756   -0.8065 B   0  0  0  0  0  0  0  0  0  0  0  0
   -5.0072   -0.6437   -2.8496 B   0  0  0  0  0  0  0  0  0  0  0  0
   -3.1952    0.1543   -0.9257 B   0  0  0  0  0  0  0  0  0  0  0  0
   -0.9469    0.6233    2.2104 B   0  0  0  0  0  0  0  0  0  0  0  0
    0.0016   -0.0204    0.9084 B   0  0  0  0  0  0  0  0  0  0  0  0
    4.8754    0.2242   -0.5476 B   0  0  0  0  0  0  0  0  0  0  0  0
    5.8786   -1.0664   -1.1306 B   0  0  0  0  0  0  0  0  0  0  0  0
   -5.7672    0.8535   -2.9176 B   0  0  0  0  0  0  0  0  0  0  0  0
   -2.8971    1.6282   -0.7083 B   0  0  0  0  0  0  0  0  0  0  0  0
   -1.2399    2.1332    2.0889 B   0  0  0  0  0  0  0  0  0  0  0  0
    0.1883    1.5499    1.0540 B   0  0  0  0  0  0  0  0  0  0  0  0
    4.2581    1.5841    0.0647 B   0  0  0  0  0  0  0  0  0  0  0  0
    6.3075    0.4397   -1.6258 B   0  0  0  0  0  0  0  0  0  0  0  0
   -5.7341    1.7554   -1.4938 B   0  0  0  0  0  0  0  0  0  0  0  0
   -3.3469    2.9740   -0.1746 B   0  0  0  0  0  0  0  0  0  0  0  0
   -1.6646    3.6160    1.7973 B   0  0  0  0  0  0  0  0  0  0  0  0
   -0.0590    3.1640    1.3235 B   0  0  0  0  0  0  0  0  0  0  0  0
    2.9656    2.2589    0.6844 B   0  0  0  0  0  0  0  0  0  0  0  0
    5.7919    1.6725   -0.6985 B   0  0  0  0  0  0  0  0  0  0  0  0
   -6.6389    2.8000   -0.8422 B   0  0  0  0  0  0  0  0  0  0  0  0
   -4.4746    3.8873    0.5879 B   0  0  0  0  0  0  0  0  0  0  0  0
   -1.7771    5.1752    1.2154 B   0  0  0  0  0  0  0  0  0  0  0  0
    1.1754    4.4066    1.3290 B   0  0  0  0  0  0  0  0  0  0  0  0
    2.5938    3.9229    0.8796 B   0  0  0  0  0  0  0  0  0  0  0  0
    5.3509    2.9860   -0.0541 B   0  0  0  0  0  0  0  0  0  0  0  0
   -5.3190   -3.6348    0.4165 B   0  0  0  0  0  0  0  0  0  0  0  0
   -2.4877   -3.6329    1.6055 B   0  0  0  0  0  0  0  0  0  0  0  0
    0.3596   -4.7213    1.9063 B   0  0  0  0  0  0  0  0  0  0  0  0
    1.7215   -2.4162    0.7345 B   0  0  0  0  0  0  0  0  0  0  0  0
    4.3387   -3.4800   -0.0729 B   0  0  0  0  0  0  0  0  0  0  0  0
   -5.0953    2.8472   -0.3735 B   0  0  0  0  0  0  0  0  0  0  0  0
   -3.0345    4.3187    0.9326 B   0  0  0  0  0  0  0  0  0  0  0  0
   -0.2869    4.8951    1.4426 B   0  0  0  0  0  0  0  0  0  0  0  0
    1.4616    2.5482    0.9924 B   0  0  0  0  0  0  0  0  0  0  0  0
    4.0784    3.6198    0.5106 B   0  0  0  0  0  0  0  0  0  0  0  0
   -4.5957    0.5913   -1.8415 B   0  0  0  0  0  0  0  0  0  0  0  0
   -7.3684   -2.5027   -0.8103 H   0  0  0  0  0  0  0  0  0  0  0  0
   -4.9591   -1.3760   -3.7739 H   0  0  0  0  0  0  0  0  0  0  0  0
   -6.3246    1.2608   -3.8715 H   0  0  0  0  0  0  0  0  0  0  0  0
   -7.6134    3.4017   -0.5976 H   0  0  0  0  0  0  0  0  0  0  0  0
    6.3612   -4.9354   -0.3602 H   0  0  0  0  0  0  0  0  0  0  0  0
    8.0163   -2.4682   -0.9061 H   0  0  0  0  0  0  0  0  0  0  0  0
    6.9392    0.6146   -2.6128 H   0  0  0  0  0  0  0  0  0  0  0  0
  1  2  1  0  0  0  0
  2  3  1  0  0  0  0
  3  4  4  0  0  0  0
  4  5  4  0  0  0  0
  5  6  4  0  0  0  0
  6  7  4  0  0  0  0
  7  8  4  0  0  0  0
  8  9  4  0  0  0  0
  9 10  4  0  0  0  0
 10 11  4  0  0  0  0
 11 12  1  0  0  0  0
 12 13  1  0  0  0  0
 12 14  1  0  0  0  0
 11 15  4  0  0  0  0
  8 16  4  0  0  0  0
 15 16  4  0  0  0  0
 16 17  1  0  0  0  0
  6 18  4  0  0  0  0
 17 18  1  0  0  0  0
  3 19  4  0  0  0  0
 18 19  4  0  0  0  0
  1 20  1  0  0  0  0
  1 21  1  0  0  0  0
  1 22  1  0  0  0  0
  2 23  1  0  0  0  0
  4 24  1  0  0  0  0
  5 25  1  0  0  0  0
  9 26  1  0  0  0  0
 10 27  1  0  0  0  0
 13 28  1  0  0  0  0
 13 29  1  0  0  0  0
 13 30  1  0  0  0  0
 14 31  1  0  0  0  0
 14 32  1  0  0  0  0
 14 33  1  0  0  0  0
 15 34  1  0  0  0  0
 19 35  1  0  0  0  0
 39 40  1  0  0  0  0
 36 42  1  0  0  0  0
 37 42  1  0  0  0  0
 37 43  1  0  0  0  0
 38 44  1  0  0  0  0
 43 44  1  0  0  0  0
 38 45  1  0  0  0  0
 39 45  1  0  0  0  0
 44 45  1  0  0  0  0
 40 46  1  0  0  0  0
 41 47  1  0  0  0  0
 42 48  1  0  0  0  0
 42 49  1  0  0  0  0
 43 49  1  0  0  0  0
 48 49  1  0  0  0  0
 44 50  1  0  0  0  0
 45 51  1  0  0  0  0
 50 51  1  0  0  0  0
 46 52  1  0  0  0  0
 47 52  1  0  0  0  0
 41 53  1  0  0  0  0
 47 53  1  0  0  0  0
 48 54  1  0  0  0  0
 48 55  1  0  0  0  0
 49 55  1  0  0  0  0
 50 56  1  0  0  0  0
 50 57  1  0  0  0  0
 51 57  1  0  0  0  0
 56 57  1  0  0  0  0
 52 58  1  0  0  0  0
 47 59  1  0  0  0  0
 52 59  1  0  0  0  0
 53 59  1  0  0  0  0
 58 59  1  0  0  0  0
 54 60  1  0  0  0  0
 55 61  1  0  0  0  0
 56 62  1  0  0  0  0
 56 63  1  0  0  0  0
 57 63  1  0  0  0  0
 62 63  1  0  0  0  0
 58 64  1  0  0  0  0
 58 65  1  0  0  0  0
 59 65  1  0  0  0  0
 60 66  1  0  0  0  0
 61 67  2  0  0  0  0
 62 68  1  0  0  0  0
 62 69  1  0  0  0  0
 63 69  1  0  0  0  0
 68 69  1  0  0  0  0
 64 70  1  0  0  0  0
 58 71  1  0  0  0  0
 64 71  1  0  0  0  0
 65 71  1  0  0  0  0
 66 72  1  0  0  0  0
 67 73  1  0  0  0  0
 68 74  1  0  0  0  0
 69 75  1  0  0  0  0
 70 76  1  0  0  0  0
 75 76  1  0  0  0  0
 64 77  1  0  0  0  0
 71 77  1  0  0  0  0
 36 78  2  0  0  0  0
 37 78  1  0  0  0  0
 42 78  1  0  0  0  0
 37 79  1  0  0  0  0
 38 79  1  0  0  0  0
 43 79  1  0  0  0  0
 44 79  1  0  0  0  0
 38 80  1  0  0  0  0
 39 80  1  0  0  0  0
 45 80  1  0  0  0  0
 39 81  1  0  0  0  0
 40 81  1  0  0  0  0
 45 81  1  0  0  0  0
 46 81  1  0  0  0  0
 51 81  1  0  0  0  0
 40 82  1  0  0  0  0
 41 82  1  0  0  0  0
 46 82  1  0  0  0  0
 47 82  1  0  0  0  0
 66 83  1  0  0  0  0
 67 83  1  0  0  0  0
 72 83  1  0  0  0  0
 73 83  1  0  0  0  0
 67 84  1  0  0  0  0
 68 84  1  0  0  0  0
 73 84  1  0  0  0  0
 74 84  1  0  0  0  0
 68 85  1  0  0  0  0
 69 85  1  0  0  0  0
 74 85  1  0  0  0  0
 75 85  1  0  0  0  0
 63 86  1  0  0  0  0
 69 86  1  0  0  0  0
 70 86  1  0  0  0  0
 75 86  1  0  0  0  0
 76 86  1  0  0  0  0
 64 87  1  0  0  0  0
 70 87  1  0  0  0  0
 76 87  1  0  0  0  0
 77 87  1  0  0  0  0
 48 88  1  0  0  0  0
 54 88  1  0  0  0  0
 55 88  1  0  0  0  0
 60 88  1  0  0  0  0
 66 88  1  0  0  0  0
 36 89  1  0  0  0  0
 54 90  1  0  0  0  0
 60 91  1  0  0  0  0
 72 92  1  0  0  0  0
 41 93  1  0  0  0  0
 53 94  1  0  0  0  0
 65 95  1  0  0  0  0
M  CHG  1   1   1
M  END
