 xtb: 6.7.1pre (5071a88)
          08312620193D

 95127  0     0  0            999 V2000
    5.9879   -0.8273    4.9565 C   0  0  0  0  0  0  0  0  0  0  0  0
    5.6812    0.2139    3.9916 N   0  0  0  0  0  0  0  0  0  0  0  0
    4.3720    0.3712    3.5333 C   0  0  0  0  0  0  0  0  0  0  0  0
    4.1502    1.1502    2.3955 C   0  0  0  0  0  0  0  0  0  0  0  0
    2.8534    1.4010    1.9233 C   0  0  0  0  0  0  0  0  0  0  0  0
    1.7287    0.9195    2.5655 C   0  0  0  0  0  0  0  0  0  0  0  0
    0.5391    1.2233    2.0118 N   0  0  0  0  0  0  0  0  0  0  0  0
   -0.6369    0.8283    2.5377 C   0  0  0  0  0  0  0  0  0  0  0  0
   -1.7796    1.2131    1.8679 C   0  0  0  0  0  0  0  0  0  0  0  0
   -3.0678    0.8637    2.3111 C   0  0  0  0  0  0  0  0  0  0  0  0
   -3.2796    0.0908    3.4603 C   0  0  0  0  0  0  0  0  0  0  0  0
   -4.5603   -0.2427    3.9101 N   0  0  0  0  0  0  0  0  0  0  0  0
   -5.6970   -0.0860    3.0033 C   0  0  0  0  0  0  0  0  0  0  0  0
   -4.7108   -1.2713    4.9389 C   0  0  0  0  0  0  0  0  0  0  0  0
   -2.1182   -0.2860    4.1504 C   0  0  0  0  0  0  0  0  0  0  0  0
   -0.8271    0.0657    3.7032 C   0  0  0  0  0  0  0  0  0  0  0  0
    0.5706   -0.4943    4.6774 S   0  0  0  0  0  0  0  0  0  0  0  0
    1.9464    0.1682    3.7376 C   0  0  0  0  0  0  0  0  0  0  0  0
    3.2459   -0.0867    4.2177 C   0  0  0  0  0  0  0  0  0  0  0  0
    5.6847   -1.8132    4.5890 H   0  0  0  0  0  0  0  0  0  0  0  0
    7.0691   -0.8513    5.1265 H   0  0  0  0  0  0  0  0  0  0  0  0
    5.5125   -0.6299    5.9225 H   0  0  0  0  0  0  0  0  0  0  0  0
    6.3600    0.2621    3.2353 H   0  0  0  0  0  0  0  0  0  0  0  0
    4.9904    1.5799    1.8548 H   0  0  0  0  0  0  0  0  0  0  0  0
    2.7292    2.0027    1.0251 H   0  0  0  0  0  0  0  0  0  0  0  0
   -1.6824    1.8128    0.9650 H   0  0  0  0  0  0  0  0  0  0  0  0
   -3.9005    1.2282    1.7171 H   0  0  0  0  0  0  0  0  0  0  0  0
   -6.6342   -0.3902    3.4830 H   0  0  0  0  0  0  0  0  0  0  0  0
   -5.5711   -0.7007    2.1051 H   0  0  0  0  0  0  0  0  0  0  0  0
   -5.8338    0.9621    2.7166 H   0  0  0  0  0  0  0  0  0  0  0  0
   -4.3049   -2.2303    4.5984 H   0  0  0  0  0  0  0  0  0  0  0  0
   -5.7651   -1.4298    5.1923 H   0  0  0  0  0  0  0  0  0  0  0  0
   -4.2202   -0.9733    5.8717 H   0  0  0  0  0  0  0  0  0  0  0  0
   -2.1892   -0.8667    5.0651 H   0  0  0  0  0  0  0  0  0  0  0  0
    3.3571   -0.6498    5.1394 H   0  0  0  0  0  0  0  0  0  0  0  0
   -7.5000   -4.5000    0.0000 B   0  0  0  0  0  0  0  0  0  0  0  0
   -4.5000   -4.5000    0.0000 B   0  0  0  0  0  0  0  0  0  0  0  0
   -1.5000   -4.5000    0.0000 B   0  0  0  0  0  0  0  0  0  0  0  0
    1.5000   -4.5000    0.0000 B   0  0  0  0  0  0  0  0  0  0  0  0
    4.5000   -4.5000    0.0000 B   0  0  0  0  0  0  0  0  0  0  0  0
    7.5000   -4.5000    0.0000 B   0  0  0  0  0  0  0  0  0  0  0  0
   -7.5000   -3.0000    0.0000 B   0  0  0  0  0  0  0  0  0  0  0  0
   -4.5000   -3.0000    0.0000 B   0  0  0  0  0  0  0  0  0  0  0  0
   -1.5000   -3.0000    0.0000 B   0  0  0  0  0  0  0  0  0  0  0  0
    1.5000   -3.0000    0.0000 B   0  0  0  0  0  0  0  0  0  0  0  0
    4.5000   -3.0000    0.0000 B   0  0  0  0  0  0  0  0  0  0  0  0
    7.5000   -3.0000    0.0000 B   0  0  0  0  0  0  0  0  0  0  0  0
   -7.5000   -1.5000    0.0000 B   0  0  0  0  0  0  0  0  0  0  0  0
   -4.5000   -1.5000    0.0000 B   0  0  0  0  0  0  0  0  0  0  0  0
   -1.5000   -1.5000    0.0000 B   0  0  0  0  0  0  0  0  0  0  0  0
    1.5000   -1.5000    0.0000 B   0  0  0  0  0  0  0  0  0  0  0  0
    4.5000   -1.5000    0.0000 B   0  0  0  0  0  0  0  0  0  0  0  0
    7.5000   -1.5000    0.0000 B   0  0  0  0  0  0  0  0  0  0  0  0
   -7.5000    0.0000    0.0000 B   0  0  0  0  0  0  0  0  0  0  0  0
   -4.5000    0.0000    0.0000 B   0  0  0  0  0  0  0  0  0  0  0  0
   -1.5000    0.0000    0.0000 B   0  0  0  0  0  0  0  0  0  0  0  0
    1.5000    0.0000    0.0000 B   0  0  0  0  0  0  0  0  0  0  0  0
    4.5000    0.0000    0.0000 B   0  0  0  0  0  0  0  0  0  0  0  0
    7.5000    0.0000    0.0000 B   0  0  0  0  0  0  0  0  0  0  0  0
   -7.5000    1.5000    0.0000 B   0  0  0  0  0  0  0  0  0  0  0  0
   -4.5000    1.5000    0.0000 B   0  0  0  0  0  0  0  0  0  0  0  0
   -1.5000    1.5000    0.0000 B   0  0  0  0  0  0  0  0  0  0  0  0
    1.5000    1.5000    0.0000 B   0  0  0  0  0  0  0  0  0  0  0  0
    4.5000    1.5000    0.0000 B   0  0  0  0  0  0  0  0  0  0  0  0
    7.5000    1.5000    0.0000 B   0  0  0  0  0  0  0  0  0  0  0  0
   -7.5000    3.0000    0.0000 B   0  0  0  0  0  0  0  0  0  0  0  0
   -4.5000    3.0000    0.0000 B   0  0  0  0  0  0  0  0  0  0  0  0
   -1.5000    3.0000    0.0000 B   0  0  0  0  0  0  0  0  0  0  0  0
    1.5000    3.0000    0.0000 B   0  0  0  0  0  0  0  0  0  0  0  0
    4.5000    3.0000    0.0000 B   0  0  0  0  0  0  0  0  0  0  0  0
    7.5000    3.0000    0.0000 B   0  0  0  0  0  0  0  0  0  0  0  0
   -7.5000    4.5000    0.0000 B   0  0  0  0  0  0  0  0  0  0  0  0
   -4.5000    4.5000    0.0000 B   0  0  0  0  0  0  0  0  0  0  0  0
   -1.5000    4.5000    0.0000 B   0  0  0  0  0  0  0  0  0  0  0  0
    1.5000    4.5000    0.0000 B   0  0  0  0  0  0  0  0  0  0  0  0
    4.5000    4.5000    0.0000 B   0  0  0  0  0  0  0  0  0  0  0  0
    7.5000    4.5000    0.0000 B   0  0  0  0  0  0  0  0  0  0  0  0
   -6.0000   -3.7500    0.0000 B   0  0  0  0  0  0  0  0  0  0  0  0
   -3.0000   -3.7500    0.0000 B   0  0  0  0  0  0  0  0  0  0  0  0
    0.0000   -3.7500    0.0000 B   0  0  0  0  0  0  0  0  0  0  0  0
    3.0000   -3.7500    0.0000 B   0  0  0  0  0  0  0  0  0  0  0  0
    6.0000   -3.7500    0.0000 B   0  0  0  0  0  0  0  0  0  0  0  0
   -6.0000    3.7500    0.0000 B   0  0  0  0  0  0  0  0  0  0  0  0
   -3.0000    3.7500    0.0000 B   0  0  0  0  0  0  0  0  0  0  0  0
    0.0000    3.7500    0.0000 B   0  0  0  0  0  0  0  0  0  0  0  0
    3.0000    3.7500    0.0000 B   0  0  0  0  0  0  0  0  0  0  0  0
    6.0000    3.7500    0.0000 B   0  0  0  0  0  0  0  0  0  0  0  0
   -6.0000    0.0000    0.0000 B   0  0  0  0  0  0  0  0  0  0  0  0
   -8.6000   -4.5000    0.0000 H   0  0  0  0  0  0  0  0  0  0  0  0
   -8.6000   -1.5000    0.0000 H   0  0  0  0  0  0  0  0  0  0  0  0
   -8.6000    1.5000    0.0000 H   0  0  0  0  0  0  0  0  0  0  0  0
   -8.6000    4.5000    0.0000 H   0  0  0  0  0  0  0  0  0  0  0  0
    8.6000   -4.5000    0.0000 H   0  0  0  0  0  0  0  0  0  0  0  0
    8.6000   -1.5000    0.0000 H   0  0  0  0  0  0  0  0  0  0  0  0
    8.6000    1.5000    0.0000 H   0  0  0  0  0  0  0  0  0  0  0  0
  1  2  1  0  0  0  0
  2  3  1  0  0  0  0
  3  4  4  0  0  0  0
  4  5  4  0  0  0  0
  5  6  4  0  0  0  0
  6  7  4  0  0  0  0
  7  8  4  0  0  0  0
  8  9  4  0  0  0  0
  9 10  4  0  0  0  0
 10 11  4  0  0  0  0
 11 12  1  0  0  0  0
 12 13  1  0  0  0  0
 12 14  1  0  0  0  0
 11 15  4  0  0  0  0
  8 16  4  0  0  0  0
 15 16  4  0  0  0  0
 16 17  1  0  0  0  0
  6 18  4  0  0  0  0
 17 18  1  0  0  0  0
  3 19  4  0  0  0  0
 18 19  4  0  0  0  0
  1 20  1  0  0  0  0
  1 21  1  0  0  0  0
  1 22  1  0  0  0  0
  2 23  1  0  0  0  0
  4 24  1  0  0  0  0
  5 25  1  0  0  0  0
  9 26  1  0  0  0  0
 10 27  1  0  0  0  0
 13 28  1  0  0  0  0
 13 29  1  0  0  0  0
 13 30  1  0  0  0  0
 14 31  1  0  0  0  0
 14 32  1  0  0  0  0
 14 33  1  0  0  0  0
 15 34  1  0  0  0  0
 19 35  1  0  0  0  0
 36 42  1  0  0  0  0
 37 43  1  0  0  0  0
 38 44  1  0  0  0  0
 39 45  1  0  0  0  0
 40 46  1  0  0  0  0
 41 47  1  0  0  0  0
 42 48  1  0  0  0  0
 43 49  1  0  0  0  0
 44 50  1  0  0  0  0
 45 51  1  0  0  0  0
 46 52  1  0  0  0  0
 47 53  1  0  0  0  0
 48 54  1  0  0  0  0
 49 55  1  0  0  0  0
 50 56  2  0  0  0  0
 51 57  2  0  0  0  0
 52 58  2  0  0  0  0
 53 59  1  0  0  0  0
 54 60  1  0  0  0  0
 55 61  1  0  0  0  0
  9 62  1  0  0  0  0
 56 62  2  0  0  0  0
 57 63  1  0  0  0  0
 58 64  2  0  0  0  0
 59 65  2  0  0  0  0
 60 66  1  0  0  0  0
 61 67  1  0  0  0  0
 62 68  1  0  0  0  0
 63 69  1  0  0  0  0
 64 70  1  0  0  0  0
 65 71  1  0  0  0  0
 66 72  1  0  0  0  0
 67 73  1  0  0  0  0
 68 74  1  0  0  0  0
 69 75  1  0  0  0  0
 70 76  1  0  0  0  0
 71 77  2  0  0  0  0
 36 78  1  0  0  0  0
 37 78  1  0  0  0  0
 42 78  1  0  0  0  0
 43 78  1  0  0  0  0
 37 79  1  0  0  0  0
 38 79  1  0  0  0  0
 43 79  1  0  0  0  0
 44 79  1  0  0  0  0
 38 80  1  0  0  0  0
 39 80  1  0  0  0  0
 44 80  1  0  0  0  0
 45 80  1  0  0  0  0
 39 81  1  0  0  0  0
 40 81  1  0  0  0  0
 45 81  1  0  0  0  0
 46 81  1  0  0  0  0
 40 82  1  0  0  0  0
 41 82  1  0  0  0  0
 46 82  1  0  0  0  0
 47 82  1  0  0  0  0
 66 83  1  0  0  0  0
 67 83  1  0  0  0  0
 72 83  1  0  0  0  0
 73 83  1  0  0  0  0
 67 84  1  0  0  0  0
 68 84  1  0  0  0  0
 73 84  1  0  0  0  0
 74 84  1  0  0  0  0
 68 85  1  0  0  0  0
 69 85  1  0  0  0  0
 74 85  1  0  0  0  0
 75 85  1  0  0  0  0
 69 86  1  0  0  0  0
 70 86  1  0  0  0  0
 75 86  1  0  0  0  0
 76 86  1  0  0  0  0
 70 87  1  0  0  0  0
 71 87  1  0  0  0  0
 76 87  1  0  0  0  0
 77 87  1  0  0  0  0
 48 88  1  0  0  0  0
 49 88  1  0  0  0  0
 54 88  1  0  0  0  0
 55 88  1  0  0  0  0
 60 88  1  0  0  0  0
 61 88  1  0  0  0  0
 36 89  1  0  0  0  0
 48 90  1  0  0  0  0
 60 91  1  0  0  0  0
 72 92  1  0  0  0  0
 41 93  1  0  0  0  0
 53 94  1  0  0  0  0
 65 95  1  0  0  0  0
M  END
