 xtb: 6.7.1pre (5071a88)
          08312620203D

 96128  0     0  0            999 V2000
   -4.0193   -0.2286    5.3482 C   0  0  0  0  0  0  0  0  0  0  0  0
   -3.8420   -0.8989    3.9922 C   0  0  0  0  0  0  0  0  0  0  0  0
   -2.8545   -0.1948    3.1619 N   0  0  0  0  0  0  0  0  0  0  0  0
   -3.3798    0.5433    2.0051 C   0  0  0  0  0  0  0  0  0  0  0  0
   -3.8007    1.9529    2.3913 C   0  0  0  0  0  0  0  0  0  0  0  0
   -1.4894   -0.2545    3.4247 C   0  0  0  0  0  0  0  0  0  0  0  0
   -0.9345   -1.1950    4.3081 C   0  0  0  0  0  0  0  0  0  0  0  0
    0.4432   -1.2615    4.5741 C   0  0  0  0  0  0  0  0  0  0  0  0
    1.3328   -0.3869    3.9531 C   0  0  0  0  0  0  0  0  0  0  0  0
    2.7637   -0.4675    4.2788 C   0  0  0  0  0  0  0  0  0  0  0  0
    3.7475   -0.2522    3.3903 C   0  0  0  0  0  0  0  0  0  0  0  0
    5.1521   -0.3498    3.7459 C   0  0  0  0  0  0  0  0  0  0  0  0
    6.2046   -0.1440    2.9278 C   0  0  0  0  0  0  0  0  0  0  0  0
    6.0550    0.2150    1.5587 C   0  0  0  0  0  0  0  0  0  0  0  0
    5.9194    0.5104    0.4446 N   0  0  0  0  0  0  0  0  0  0  0  0
    7.5239   -0.2849    3.4458 C   0  0  0  0  0  0  0  0  0  0  0  0
    8.5896   -0.4050    3.8891 N   0  0  0  0  0  0  0  0  0  0  0  0
    0.8088    0.5706    3.0868 C   0  0  0  0  0  0  0  0  0  0  0  0
   -0.5711    0.6263    2.8290 C   0  0  0  0  0  0  0  0  0  0  0  0
   -4.7931   -0.7460    5.9243 H   0  0  0  0  0  0  0  0  0  0  0  0
   -3.0979   -0.2441    5.9374 H   0  0  0  0  0  0  0  0  0  0  0  0
   -4.3235    0.8166    5.2365 H   0  0  0  0  0  0  0  0  0  0  0  0
   -3.5810   -1.9566    4.1088 H   0  0  0  0  0  0  0  0  0  0  0  0
   -4.8194   -0.9029    3.4935 H   0  0  0  0  0  0  0  0  0  0  0  0
   -2.6604    0.5699    1.1784 H   0  0  0  0  0  0  0  0  0  0  0  0
   -4.2503    0.0167    1.5936 H   0  0  0  0  0  0  0  0  0  0  0  0
   -4.6220    1.9342    3.1145 H   0  0  0  0  0  0  0  0  0  0  0  0
   -2.9753    2.5153    2.8381 H   0  0  0  0  0  0  0  0  0  0  0  0
   -4.1464    2.4986    1.5077 H   0  0  0  0  0  0  0  0  0  0  0  0
   -1.5617   -1.9217    4.8145 H   0  0  0  0  0  0  0  0  0  0  0  0
    0.8031   -2.0186    5.2668 H   0  0  0  0  0  0  0  0  0  0  0  0
    2.9895   -0.7396    5.3078 H   0  0  0  0  0  0  0  0  0  0  0  0
    3.4931   -0.0088    2.3597 H   0  0  0  0  0  0  0  0  0  0  0  0
    5.3498   -0.6187    4.7857 H   0  0  0  0  0  0  0  0  0  0  0  0
    1.4534    1.3016    2.6054 H   0  0  0  0  0  0  0  0  0  0  0  0
   -0.9071    1.4092    2.1560 H   0  0  0  0  0  0  0  0  0  0  0  0
   -7.5000   -4.5000    0.0000 B   0  0  0  0  0  0  0  0  0  0  0  0
   -4.5000   -4.5000    0.0000 B   0  0  0  0  0  0  0  0  0  0  0  0
   -1.5000   -4.5000    0.0000 B   0  0  0  0  0  0  0  0  0  0  0  0
    1.5000   -4.5000    0.0000 B   0  0  0  0  0  0  0  0  0  0  0  0
    4.5000   -4.5000    0.0000 B   0  0  0  0  0  0  0  0  0  0  0  0
    7.5000   -4.5000    0.0000 B   0  0  0  0  0  0  0  0  0  0  0  0
   -7.5000   -3.0000    0.0000 B   0  0  0  0  0  0  0  0  0  0  0  0
   -4.5000   -3.0000    0.0000 B   0  0  0  0  0  0  0  0  0  0  0  0
   -1.5000   -3.0000    0.0000 B   0  0  0  0  0  0  0  0  0  0  0  0
    1.5000   -3.0000    0.0000 B   0  0  0  0  0  0  0  0  0  0  0  0
    4.5000   -3.0000    0.0000 B   0  0  0  0  0  0  0  0  0  0  0  0
    7.5000   -3.0000    0.0000 B   0  0  0  0  0  0  0  0  0  0  0  0
   -7.5000   -1.5000    0.0000 B   0  0  0  0  0  0  0  0  0  0  0  0
   -4.5000   -1.5000    0.0000 B   0  0  0  0  0  0  0  0  0  0  0  0
   -1.5000   -1.5000    0.0000 B   0  0  0  0  0  0  0  0  0  0  0  0
    1.5000   -1.5000    0.0000 B   0  0  0  0  0  0  0  0  0  0  0  0
    4.5000   -1.5000    0.0000 B   0  0  0  0  0  0  0  0  0  0  0  0
    7.5000   -1.5000    0.0000 B   0  0  0  0  0  0  0  0  0  0  0  0
   -7.5000    0.0000    0.0000 B   0  0  0  0  0  0  0  0  0  0  0  0
   -4.5000    0.0000    0.0000 B   0  0  0  0  0  0  0  0  0  0  0  0
   -1.5000    0.0000    0.0000 B   0  0  0  0  0  0  0  0  0  0  0  0
    1.5000    0.0000    0.0000 B   0  0  0  0  0  0  0  0  0  0  0  0
    4.5000    0.0000    0.0000 B   0  0  0  0  0  0  0  0  0  0  0  0
    7.5000    0.0000    0.0000 B   0  0  0  0  0  0  0  0  0  0  0  0
   -7.5000    1.5000    0.0000 B   0  0  0  0  0  0  0  0  0  0  0  0
   -4.5000    1.5000    0.0000 B   0  0  0  0  0  0  0  0  0  0  0  0
   -1.5000    1.5000    0.0000 B   0  0  0  0  0  0  0  0  0  0  0  0
    1.5000    1.5000    0.0000 B   0  0  0  0  0  0  0  0  0  0  0  0
    4.5000    1.5000    0.0000 B   0  0  0  0  0  0  0  0  0  0  0  0
    7.5000    1.5000    0.0000 B   0  0  0  0  0  0  0  0  0  0  0  0
   -7.5000    3.0000    0.0000 B   0  0  0  0  0  0  0  0  0  0  0  0
   -4.5000    3.0000    0.0000 B   0  0  0  0  0  0  0  0  0  0  0  0
   -1.5000    3.0000    0.0000 B   0  0  0  0  0  0  0  0  0  0  0  0
    1.5000    3.0000    0.0000 B   0  0  0  0  0  0  0  0  0  0  0  0
    4.5000    3.0000    0.0000 B   0  0  0  0  0  0  0  0  0  0  0  0
    7.5000    3.0000    0.0000 B   0  0  0  0  0  0  0  0  0  0  0  0
   -7.5000    4.5000    0.0000 B   0  0  0  0  0  0  0  0  0  0  0  0
   -4.5000    4.5000    0.0000 B   0  0  0  0  0  0  0  0  0  0  0  0
   -1.5000    4.5000    0.0000 B   0  0  0  0  0  0  0  0  0  0  0  0
    1.5000    4.5000    0.0000 B   0  0  0  0  0  0  0  0  0  0  0  0
    4.5000    4.5000    0.0000 B   0  0  0  0  0  0  0  0  0  0  0  0
    7.5000    4.5000    0.0000 B   0  0  0  0  0  0  0  0  0  0  0  0
   -6.0000   -3.7500    0.0000 B   0  0  0  0  0  0  0  0  0  0  0  0
   -3.0000   -3.7500    0.0000 B   0  0  0  0  0  0  0  0  0  0  0  0
    0.0000   -3.7500    0.0000 B   0  0  0  0  0  0  0  0  0  0  0  0
    3.0000   -3.7500    0.0000 B   0  0  0  0  0  0  0  0  0  0  0  0
    6.0000   -3.7500    0.0000 B   0  0  0  0  0  0  0  0  0  0  0  0
   -6.0000    3.7500    0.0000 B   0  0  0  0  0  0  0  0  0  0  0  0
   -3.0000    3.7500    0.0000 B   0  0  0  0  0  0  0  0  0  0  0  0
    0.0000    3.7500    0.0000 B   0  0  0  0  0  0  0  0  0  0  0  0
    3.0000    3.7500    0.0000 B   0  0  0  0  0  0  0  0  0  0  0  0
    6.0000    3.7500    0.0000 B   0  0  0  0  0  0  0  0  0  0  0  0
   -6.0000    0.0000    0.0000 B   0  0  0  0  0  0  0  0  0  0  0  0
   -8.6000   -4.5000    0.0000 H   0  0  0  0  0  0  0  0  0  0  0  0
   -8.6000   -1.5000    0.0000 H   0  0  0  0  0  0  0  0  0  0  0  0
   -8.6000    1.5000    0.0000 H   0  0  0  0  0  0  0  0  0  0  0  0
   -8.6000    4.5000    0.0000 H   0  0  0  0  0  0  0  0  0  0  0  0
    8.6000   -4.5000    0.0000 H   0  0  0  0  0  0  0  0  0  0  0  0
    8.6000   -1.5000    0.0000 H   0  0  0  0  0  0  0  0  0  0  0  0
    8.6000    1.5000    0.0000 H   0  0  0  0  0  0  0  0  0  0  0  0
  1  2  1  0  0  0  0
  2  3  1  0  0  0  0
  3  4  1  0  0  0  0
  4  5  1  0  0  0  0
  3  6  1  0  0  0  0
  6  7  4  0  0  0  0
  7  8  4  0  0  0  0
  8  9  4  0  0  0  0
  9 10  1  0  0  0  0
 10 11  2  0  0  0  0
 11 12  4  0  0  0  0
 12 13  4  0  0  0  0
 13 14  4  0  0  0  0
 14 15  2  0  0  0  0
 13 16  1  0  0  0  0
 16 17  3  0  0  0  0
  9 18  4  0  0  0  0
  6 19  4  0  0  0  0
 18 19  4  0  0  0  0
  1 20  1  0  0  0  0
  1 21  1  0  0  0  0
  1 22  1  0  0  0  0
  2 23  1  0  0  0  0
  2 24  1  0  0  0  0
  4 25  1  0  0  0  0
  4 26  1  0  0  0  0
  5 27  1  0  0  0  0
  5 28  1  0  0  0  0
  5 29  1  0  0  0  0
  7 30  1  0  0  0  0
  8 31  1  0  0  0  0
 10 32  1  0  0  0  0
 11 33  1  0  0  0  0
 12 34  1  0  0  0  0
 18 35  1  0  0  0  0
 19 36  1  0  0  0  0
 37 43  1  0  0  0  0
 38 44  1  0  0  0  0
 39 45  1  0  0  0  0
 40 46  1  0  0  0  0
 41 47  1  0  0  0  0
 42 48  1  0  0  0  0
 43 49  1  0  0  0  0
 44 50  1  0  0  0  0
 45 51  1  0  0  0  0
 46 52  1  0  0  0  0
 47 53  1  0  0  0  0
 48 54  1  0  0  0  0
 49 55  1  0  0  0  0
 50 56  1  0  0  0  0
 51 57  2  0  0  0  0
 52 58  2  0  0  0  0
 15 59  1  0  0  0  0
 53 59  2  0  0  0  0
 15 60  1  0  0  0  0
 54 60  1  0  0  0  0
 55 61  1  0  0  0  0
 56 62  1  0  0  0  0
 57 63  2  0  0  0  0
 58 64  2  0  0  0  0
 15 65  1  0  0  0  0
 59 65  1  0  0  0  0
 60 66  1  0  0  0  0
 61 67  1  0  0  0  0
 62 68  1  0  0  0  0
 63 69  1  0  0  0  0
 64 70  1  0  0  0  0
 65 71  1  0  0  0  0
 66 72  1  0  0  0  0
 67 73  1  0  0  0  0
 68 74  1  0  0  0  0
 69 75  1  0  0  0  0
 70 76  1  0  0  0  0
 71 77  1  0  0  0  0
 72 78  2  0  0  0  0
 37 79  1  0  0  0  0
 38 79  1  0  0  0  0
 43 79  1  0  0  0  0
 44 79  1  0  0  0  0
 38 80  1  0  0  0  0
 39 80  1  0  0  0  0
 44 80  1  0  0  0  0
 45 80  1  0  0  0  0
 39 81  1  0  0  0  0
 40 81  1  0  0  0  0
 45 81  1  0  0  0  0
 46 81  1  0  0  0  0
 40 82  1  0  0  0  0
 41 82  1  0  0  0  0
 46 82  1  0  0  0  0
 47 82  1  0  0  0  0
 41 83  1  0  0  0  0
 42 83  1  0  0  0  0
 47 83  1  0  0  0  0
 48 83  1  0  0  0  0
 67 84  1  0  0  0  0
 68 84  1  0  0  0  0
 73 84  1  0  0  0  0
 74 84  1  0  0  0  0
 68 85  1  0  0  0  0
 69 85  1  0  0  0  0
 74 85  1  0  0  0  0
 75 85  1  0  0  0  0
 69 86  1  0  0  0  0
 70 86  1  0  0  0  0
 75 86  1  0  0  0  0
 76 86  1  0  0  0  0
 70 87  1  0  0  0  0
 71 87  1  0  0  0  0
 76 87  1  0  0  0  0
 77 87  1  0  0  0  0
 71 88  1  0  0  0  0
 72 88  1  0  0  0  0
 77 88  1  0  0  0  0
 78 88  1  0  0  0  0
 49 89  1  0  0  0  0
 50 89  1  0  0  0  0
 55 89  1  0  0  0  0
 56 89  1  0  0  0  0
 61 89  1  0  0  0  0
 62 89  1  0  0  0  0
 37 90  1  0  0  0  0
 49 91  1  0  0  0  0
 61 92  1  0  0  0  0
 73 93  1  0  0  0  0
 42 94  1  0  0  0  0
 54 95  1  0  0  0  0
 66 96  1  0  0  0  0
M  END
