 xtb: 6.7.1pre (5071a88)
          08312621153D

 96149  0     0  0            999 V2000
   -4.0193   -0.2286    8.1036 C   0  0  0  0  0  0  0  0  0  0  0  0
   -3.8420   -0.8989    6.7476 C   0  0  0  0  0  0  0  0  0  0  0  0
   -2.8545   -0.1948    5.9173 N   0  0  0  0  0  0  0  0  0  0  0  0
   -3.3798    0.5433    4.7605 C   0  0  0  0  0  0  0  0  0  0  0  0
   -3.8007    1.9529    5.1467 C   0  0  0  0  0  0  0  0  0  0  0  0
   -1.4894   -0.2545    6.1801 C   0  0  0  0  0  0  0  0  0  0  0  0
   -0.9345   -1.1950    7.0635 C   0  0  0  0  0  0  0  0  0  0  0  0
    0.4432   -1.2615    7.3295 C   0  0  0  0  0  0  0  0  0  0  0  0
    1.3328   -0.3869    6.7086 C   0  0  0  0  0  0  0  0  0  0  0  0
    2.7637   -0.4675    7.0342 C   0  0  0  0  0  0  0  0  0  0  0  0
    3.7475   -0.2522    6.1458 C   0  0  0  0  0  0  0  0  0  0  0  0
    5.1521   -0.3498    6.5013 C   0  0  0  0  0  0  0  0  0  0  0  0
    6.2046   -0.1440    5.6833 C   0  0  0  0  0  0  0  0  0  0  0  0
    6.0550    0.2150    4.3141 C   0  0  0  0  0  0  0  0  0  0  0  0
    5.9194    0.5104    3.2000 N   0  0  0  0  0  0  0  0  0  0  0  0
    7.5239   -0.2849    6.2012 C   0  0  0  0  0  0  0  0  0  0  0  0
    8.5896   -0.4050    6.6445 N   0  0  0  0  0  0  0  0  0  0  0  0
    0.8088    0.5706    5.8422 C   0  0  0  0  0  0  0  0  0  0  0  0
   -0.5711    0.6263    5.5845 C   0  0  0  0  0  0  0  0  0  0  0  0
   -4.7931   -0.7460    8.6797 H   0  0  0  0  0  0  0  0  0  0  0  0
   -3.0979   -0.2441    8.6929 H   0  0  0  0  0  0  0  0  0  0  0  0
   -4.3235    0.8166    7.9919 H   0  0  0  0  0  0  0  0  0  0  0  0
   -3.5810   -1.9566    6.8642 H   0  0  0  0  0  0  0  0  0  0  0  0
   -4.8194   -0.9029    6.2490 H   0  0  0  0  0  0  0  0  0  0  0  0
   -2.6604    0.5699    3.9338 H   0  0  0  0  0  0  0  0  0  0  0  0
   -4.2503    0.0167    4.3490 H   0  0  0  0  0  0  0  0  0  0  0  0
   -4.6220    1.9342    5.8699 H   0  0  0  0  0  0  0  0  0  0  0  0
   -2.9753    2.5153    5.5935 H   0  0  0  0  0  0  0  0  0  0  0  0
   -4.1464    2.4986    4.2631 H   0  0  0  0  0  0  0  0  0  0  0  0
   -1.5617   -1.9217    7.5699 H   0  0  0  0  0  0  0  0  0  0  0  0
    0.8031   -2.0186    8.0222 H   0  0  0  0  0  0  0  0  0  0  0  0
    2.9895   -0.7396    8.0632 H   0  0  0  0  0  0  0  0  0  0  0  0
    3.4931   -0.0088    5.1151 H   0  0  0  0  0  0  0  0  0  0  0  0
    5.3498   -0.6187    7.5411 H   0  0  0  0  0  0  0  0  0  0  0  0
    1.4534    1.3016    5.3609 H   0  0  0  0  0  0  0  0  0  0  0  0
   -0.9071    1.4092    4.9114 H   0  0  0  0  0  0  0  0  0  0  0  0
   -6.3511   -2.8545   -0.3396 B   0  0  0  0  0  0  0  0  0  0  0  0
   -3.8632   -3.4276    0.8712 B   0  0  0  0  0  0  0  0  0  0  0  0
   -1.0552   -4.1651    1.9793 B   0  0  0  0  0  0  0  0  0  0  0  0
    1.6853   -4.2318    1.3549 B   0  0  0  0  0  0  0  0  0  0  0  0
    2.9703   -3.6923    0.6219 B   0  0  0  0  0  0  0  0  0  0  0  0
    5.9076   -3.8486   -0.3800 B   0  0  0  0  0  0  0  0  0  0  0  0
   -4.7612   -2.3307   -0.4078 B   0  0  0  0  0  0  0  0  0  0  0  0
   -2.6199   -2.2111    0.8442 B   0  0  0  0  0  0  0  0  0  0  0  0
   -1.2327   -2.3911    1.7792 B   0  0  0  0  0  0  0  0  0  0  0  0
    0.2814   -3.1446    1.2586 B   0  0  0  0  0  0  0  0  0  0  0  0
    3.1280   -2.1353    0.0337 B   0  0  0  0  0  0  0  0  0  0  0  0
    5.2824   -2.5807   -1.1427 B   0  0  0  0  0  0  0  0  0  0  0  0
   -4.3827   -1.0545   -1.3461 B   0  0  0  0  0  0  0  0  0  0  0  0
   -3.1924   -1.2685   -0.2398 B   0  0  0  0  0  0  0  0  0  0  0  0
   -0.7667   -0.9151    2.1471 B   0  0  0  0  0  0  0  0  0  0  0  0
    0.4341   -1.5098    0.8825 B   0  0  0  0  0  0  0  0  0  0  0  0
    4.2603   -1.2719   -0.6057 B   0  0  0  0  0  0  0  0  0  0  0  0
    6.8452   -2.4756   -0.8065 B   0  0  0  0  0  0  0  0  0  0  0  0
   -5.0072   -0.6437   -2.8496 B   0  0  0  0  0  0  0  0  0  0  0  0
   -3.1952    0.1543   -0.9257 B   0  0  0  0  0  0  0  0  0  0  0  0
   -0.9469    0.6233    2.2104 B   0  0  0  0  0  0  0  0  0  0  0  0
    0.0016   -0.0204    0.9084 B   0  0  0  0  0  0  0  0  0  0  0  0
    4.8754    0.2242   -0.5476 B   0  0  0  0  0  0  0  0  0  0  0  0
    5.8786   -1.0664   -1.1306 B   0  0  0  0  0  0  0  0  0  0  0  0
   -5.7672    0.8535   -2.9176 B   0  0  0  0  0  0  0  0  0  0  0  0
   -2.8971    1.6282   -0.7083 B   0  0  0  0  0  0  0  0  0  0  0  0
   -1.2399    2.1332    2.0889 B   0  0  0  0  0  0  0  0  0  0  0  0
    0.1883    1.5499    1.0540 B   0  0  0  0  0  0  0  0  0  0  0  0
    4.2581    1.5841    0.0647 B   0  0  0  0  0  0  0  0  0  0  0  0
    6.3075    0.4397   -1.6258 B   0  0  0  0  0  0  0  0  0  0  0  0
   -5.7341    1.7554   -1.4938 B   0  0  0  0  0  0  0  0  0  0  0  0
   -3.3469    2.9740   -0.1746 B   0  0  0  0  0  0  0  0  0  0  0  0
   -1.6646    3.6160    1.7973 B   0  0  0  0  0  0  0  0  0  0  0  0
   -0.0590    3.1640    1.3235 B   0  0  0  0  0  0  0  0  0  0  0  0
    2.9656    2.2589    0.6844 B   0  0  0  0  0  0  0  0  0  0  0  0
    5.7919    1.6725   -0.6985 B   0  0  0  0  0  0  0  0  0  0  0  0
   -6.6389    2.8000   -0.8422 B   0  0  0  0  0  0  0  0  0  0  0  0
   -4.4746    3.8873    0.5879 B   0  0  0  0  0  0  0  0  0  0  0  0
   -1.7771    5.1752    1.2154 B   0  0  0  0  0  0  0  0  0  0  0  0
    1.1754    4.4066    1.3290 B   0  0  0  0  0  0  0  0  0  0  0  0
    2.5938    3.9229    0.8796 B   0  0  0  0  0  0  0  0  0  0  0  0
    5.3509    2.9860   -0.0541 B   0  0  0  0  0  0  0  0  0  0  0  0
   -5.3190   -3.6348    0.4165 B   0  0  0  0  0  0  0  0  0  0  0  0
   -2.4877   -3.6329    1.6055 B   0  0  0  0  0  0  0  0  0  0  0  0
    0.3596   -4.7213    1.9063 B   0  0  0  0  0  0  0  0  0  0  0  0
    1.7215   -2.4162    0.7345 B   0  0  0  0  0  0  0  0  0  0  0  0
    4.3387   -3.4800   -0.0729 B   0  0  0  0  0  0  0  0  0  0  0  0
   -5.0953    2.8472   -0.3735 B   0  0  0  0  0  0  0  0  0  0  0  0
   -3.0345    4.3187    0.9326 B   0  0  0  0  0  0  0  0  0  0  0  0
   -0.2869    4.8951    1.4426 B   0  0  0  0  0  0  0  0  0  0  0  0
    1.4616    2.5482    0.9924 B   0  0  0  0  0  0  0  0  0  0  0  0
    4.0784    3.6198    0.5106 B   0  0  0  0  0  0  0  0  0  0  0  0
   -4.5957    0.5913   -1.8415 B   0  0  0  0  0  0  0  0  0  0  0  0
   -7.3684   -2.5027   -0.8103 H   0  0  0  0  0  0  0  0  0  0  0  0
   -4.9591   -1.3760   -3.7739 H   0  0  0  0  0  0  0  0  0  0  0  0
   -6.3246    1.2608   -3.8715 H   0  0  0  0  0  0  0  0  0  0  0  0
   -7.6134    3.4017   -0.5976 H   0  0  0  0  0  0  0  0  0  0  0  0
    6.3612   -4.9354   -0.3602 H   0  0  0  0  0  0  0  0  0  0  0  0
    8.0163   -2.4682   -0.9061 H   0  0  0  0  0  0  0  0  0  0  0  0
    6.9392    0.6146   -2.6128 H   0  0  0  0  0  0  0  0  0  0  0  0
  1  2  1  0  0  0  0
  2  3  1  0  0  0  0
  3  4  1  0  0  0  0
  4  5  1  0  0  0  0
  3  6  1  0  0  0  0
  6  7  4  0  0  0  0
  7  8  4  0  0  0  0
  8  9  4  0  0  0  0
  9 10  1  0  0  0  0
 10 11  2  0  0  0  0
 11 12  4  0  0  0  0
 12 13  4  0  0  0  0
 13 14  1  0  0  0  0
 14 15  3  0  0  0  0
 13 16  1  0  0  0  0
 16 17  3  0  0  0  0
  9 18  4  0  0  0  0
  6 19  4  0  0  0  0
 18 19  4  0  0  0  0
  1 20  1  0  0  0  0
  1 21  1  0  0  0  0
  1 22  1  0  0  0  0
  2 23  1  0  0  0  0
  2 24  1  0  0  0  0
  4 25  1  0  0  0  0
  4 26  1  0  0  0  0
  5 27  1  0  0  0  0
  5 28  1  0  0  0  0
  5 29  1  0  0  0  0
  7 30  1  0  0  0  0
  8 31  1  0  0  0  0
 10 32  1  0  0  0  0
 11 33  1  0  0  0  0
 12 34  1  0  0  0  0
 18 35  1  0  0  0  0
 19 36  1  0  0  0  0
 40 41  1  0  0  0  0
 37 43  1  0  0  0  0
 38 43  1  0  0  0  0
 38 44  1  0  0  0  0
 39 45  1  0  0  0  0
 44 45  1  0  0  0  0
 39 46  1  0  0  0  0
 40 46  1  0  0  0  0
 45 46  1  0  0  0  0
 41 47  1  0  0  0  0
 42 48  1  0  0  0  0
 43 49  1  0  0  0  0
 43 50  1  0  0  0  0
 44 50  1  0  0  0  0
 49 50  1  0  0  0  0
 45 51  1  0  0  0  0
 46 52  1  0  0  0  0
 51 52  1  0  0  0  0
 47 53  1  0  0  0  0
 48 53  1  0  0  0  0
 42 54  1  0  0  0  0
 48 54  1  0  0  0  0
 49 55  1  0  0  0  0
 49 56  1  0  0  0  0
 50 56  1  0  0  0  0
 51 57  1  0  0  0  0
 51 58  1  0  0  0  0
 52 58  1  0  0  0  0
 57 58  1  0  0  0  0
 53 59  1  0  0  0  0
 48 60  1  0  0  0  0
 53 60  1  0  0  0  0
 54 60  1  0  0  0  0
 59 60  1  0  0  0  0
 55 61  1  0  0  0  0
 56 62  1  0  0  0  0
 57 63  1  0  0  0  0
 57 64  1  0  0  0  0
 58 64  1  0  0  0  0
 63 64  1  0  0  0  0
 59 65  1  0  0  0  0
 59 66  1  0  0  0  0
 60 66  1  0  0  0  0
 61 67  1  0  0  0  0
 62 68  2  0  0  0  0
 63 69  1  0  0  0  0
 63 70  1  0  0  0  0
 64 70  1  0  0  0  0
 69 70  1  0  0  0  0
 65 71  1  0  0  0  0
 59 72  1  0  0  0  0
 65 72  1  0  0  0  0
 66 72  1  0  0  0  0
 67 73  1  0  0  0  0
 68 74  1  0  0  0  0
 69 75  1  0  0  0  0
 70 76  1  0  0  0  0
 71 77  1  0  0  0  0
 76 77  1  0  0  0  0
 65 78  1  0  0  0  0
 72 78  1  0  0  0  0
 37 79  2  0  0  0  0
 38 79  1  0  0  0  0
 43 79  1  0  0  0  0
 38 80  1  0  0  0  0
 39 80  1  0  0  0  0
 44 80  1  0  0  0  0
 45 80  1  0  0  0  0
 39 81  1  0  0  0  0
 40 81  1  0  0  0  0
 46 81  1  0  0  0  0
 40 82  1  0  0  0  0
 41 82  1  0  0  0  0
 46 82  1  0  0  0  0
 47 82  1  0  0  0  0
 52 82  1  0  0  0  0
 41 83  1  0  0  0  0
 42 83  1  0  0  0  0
 47 83  1  0  0  0  0
 48 83  1  0  0  0  0
 67 84  1  0  0  0  0
 68 84  1  0  0  0  0
 73 84  1  0  0  0  0
 74 84  1  0  0  0  0
 68 85  1  0  0  0  0
 69 85  1  0  0  0  0
 74 85  1  0  0  0  0
 75 85  1  0  0  0  0
 69 86  1  0  0  0  0
 70 86  1  0  0  0  0
 75 86  1  0  0  0  0
 76 86  1  0  0  0  0
 64 87  1  0  0  0  0
 70 87  1  0  0  0  0
 71 87  1  0  0  0  0
 76 87  1  0  0  0  0
 77 87  1  0  0  0  0
 65 88  1  0  0  0  0
 71 88  1  0  0  0  0
 77 88  1  0  0  0  0
 78 88  1  0  0  0  0
 49 89  1  0  0  0  0
 55 89  1  0  0  0  0
 56 89  1  0  0  0  0
 61 89  1  0  0  0  0
 67 89  1  0  0  0  0
 37 90  1  0  0  0  0
 55 91  1  0  0  0  0
 61 92  1  0  0  0  0
 73 93  1  0  0  0  0
 42 94  1  0  0  0  0
 54 95  1  0  0  0  0
 66 96  1  0  0  0  0
M  END
