 xtb: 6.7.1pre (5071a88)
          09012616343D

 96136  0     0  0            999 V2000
   -4.0193   -0.2286    9.8521 C   0  0  0  0  0  0  0  0  0  0  0  0
   -3.8420   -0.8989    8.4961 C   0  0  0  0  0  0  0  0  0  0  0  0
   -2.8545   -0.1948    7.6657 N   0  0  0  0  0  0  0  0  0  0  0  0
   -3.3798    0.5433    6.5090 C   0  0  0  0  0  0  0  0  0  0  0  0
   -3.8007    1.9529    6.8952 C   0  0  0  0  0  0  0  0  0  0  0  0
   -1.4894   -0.2545    7.9286 C   0  0  0  0  0  0  0  0  0  0  0  0
   -0.9345   -1.1950    8.8119 C   0  0  0  0  0  0  0  0  0  0  0  0
    0.4432   -1.2615    9.0780 C   0  0  0  0  0  0  0  0  0  0  0  0
    1.3328   -0.3869    8.4570 C   0  0  0  0  0  0  0  0  0  0  0  0
    2.7637   -0.4675    8.7826 C   0  0  0  0  0  0  0  0  0  0  0  0
    3.7475   -0.2522    7.8942 C   0  0  0  0  0  0  0  0  0  0  0  0
    5.1521   -0.3498    8.2498 C   0  0  0  0  0  0  0  0  0  0  0  0
    6.2046   -0.1440    7.4317 C   0  0  0  0  0  0  0  0  0  0  0  0
    6.0550    0.2150    6.0626 C   0  0  0  0  0  0  0  0  0  0  0  0
    5.9194    0.5104    4.9485 N   0  0  0  0  0  0  0  0  0  0  0  0
    7.5239   -0.2849    7.9497 C   0  0  0  0  0  0  0  0  0  0  0  0
    8.5896   -0.4050    8.3930 N   0  0  0  0  0  0  0  0  0  0  0  0
    0.8088    0.5706    7.5906 C   0  0  0  0  0  0  0  0  0  0  0  0
   -0.5711    0.6263    7.3329 C   0  0  0  0  0  0  0  0  0  0  0  0
   -4.7931   -0.7460   10.4281 H   0  0  0  0  0  0  0  0  0  0  0  0
   -3.0979   -0.2441   10.4413 H   0  0  0  0  0  0  0  0  0  0  0  0
   -4.3235    0.8166    9.7404 H   0  0  0  0  0  0  0  0  0  0  0  0
   -3.5810   -1.9566    8.6127 H   0  0  0  0  0  0  0  0  0  0  0  0
   -4.8194   -0.9029    7.9974 H   0  0  0  0  0  0  0  0  0  0  0  0
   -2.6604    0.5699    5.6823 H   0  0  0  0  0  0  0  0  0  0  0  0
   -4.2503    0.0167    6.0975 H   0  0  0  0  0  0  0  0  0  0  0  0
   -4.6220    1.9342    7.6184 H   0  0  0  0  0  0  0  0  0  0  0  0
   -2.9753    2.5153    7.3420 H   0  0  0  0  0  0  0  0  0  0  0  0
   -4.1464    2.4986    6.0115 H   0  0  0  0  0  0  0  0  0  0  0  0
   -1.5617   -1.9217    9.3184 H   0  0  0  0  0  0  0  0  0  0  0  0
    0.8031   -2.0186    9.7707 H   0  0  0  0  0  0  0  0  0  0  0  0
    2.9895   -0.7396    9.8116 H   0  0  0  0  0  0  0  0  0  0  0  0
    3.4931   -0.0088    6.8635 H   0  0  0  0  0  0  0  0  0  0  0  0
    5.3498   -0.6187    9.2896 H   0  0  0  0  0  0  0  0  0  0  0  0
    1.4534    1.3016    7.1093 H   0  0  0  0  0  0  0  0  0  0  0  0
   -0.9071    1.4092    6.6598 H   0  0  0  0  0  0  0  0  0  0  0  0
   -6.9256   -4.6511    0.2587 B   0  0  0  0  0  0  0  0  0  0  0  0
   -5.1098   -2.2493    0.3222 B   0  0  0  0  0  0  0  0  0  0  0  0
   -3.5915   -2.1814    0.2128 B   0  0  0  0  0  0  0  0  0  0  0  0
    0.9993   -2.8754    0.0638 B   0  0  0  0  0  0  0  0  0  0  0  0
    2.4759   -3.0122   -0.2709 B   0  0  0  0  0  0  0  0  0  0  0  0
    5.2994   -3.8314   -0.6672 B   0  0  0  0  0  0  0  0  0  0  0  0
    6.3183   -4.8359   -1.1558 B   0  0  0  0  0  0  0  0  0  0  0  0
   -6.4348   -3.1583    0.2864 B   0  0  0  0  0  0  0  0  0  0  0  0
   -6.7520   -1.6338    0.3164 B   0  0  0  0  0  0  0  0  0  0  0  0
   -2.0526   -2.3173    0.3349 B   0  0  0  0  0  0  0  0  0  0  0  0
   -0.4841   -2.4619    0.2574 B   0  0  0  0  0  0  0  0  0  0  0  0
    4.0184   -2.9011   -0.2872 B   0  0  0  0  0  0  0  0  0  0  0  0
    5.7532   -2.2815   -0.3028 B   0  0  0  0  0  0  0  0  0  0  0  0
    6.8301   -3.2288   -1.0929 B   0  0  0  0  0  0  0  0  0  0  0  0
   -7.6564   -0.2550    0.3431 B   0  0  0  0  0  0  0  0  0  0  0  0
   -6.0374   -0.1395    0.1913 B   0  0  0  0  0  0  0  0  0  0  0  0
   -4.4316   -0.5357    0.2239 B   0  0  0  0  0  0  0  0  0  0  0  0
   -2.7379   -0.6604    0.3290 B   0  0  0  0  0  0  0  0  0  0  0  0
   -1.0518   -0.9157    0.6419 B   0  0  0  0  0  0  0  0  0  0  0  0
    0.5171   -1.1722    0.7257 B   0  0  0  0  0  0  0  0  0  0  0  0
    3.1231   -1.4831   -0.0635 B   0  0  0  0  0  0  0  0  0  0  0  0
    4.7001   -1.1340    0.3402 B   0  0  0  0  0  0  0  0  0  0  0  0
    6.2667   -0.7872    0.2517 B   0  0  0  0  0  0  0  0  0  0  0  0
    7.6720   -0.3517    1.0327 B   0  0  0  0  0  0  0  0  0  0  0  0
   -6.9181    1.2121    0.1915 B   0  0  0  0  0  0  0  0  0  0  0  0
   -3.4184    0.7801    0.0809 B   0  0  0  0  0  0  0  0  0  0  0  0
   -1.6542    0.5326    0.1239 B   0  0  0  0  0  0  0  0  0  0  0  0
    1.8622   -0.4037    0.3246 B   0  0  0  0  0  0  0  0  0  0  0  0
    3.5847   -0.1504    0.7852 B   0  0  0  0  0  0  0  0  0  0  0  0
    6.9910    0.6111   -0.1068 B   0  0  0  0  0  0  0  0  0  0  0  0
    8.3074    1.0629    0.6316 B   0  0  0  0  0  0  0  0  0  0  0  0
   -7.6194    2.8040    0.2986 B   0  0  0  0  0  0  0  0  0  0  0  0
   -6.1238    2.5185   -0.1765 B   0  0  0  0  0  0  0  0  0  0  0  0
   -3.5886    2.3277   -0.2368 B   0  0  0  0  0  0  0  0  0  0  0  0
   -0.9061    1.8195   -0.4198 B   0  0  0  0  0  0  0  0  0  0  0  0
    1.6234    1.0199   -0.4108 B   0  0  0  0  0  0  0  0  0  0  0  0
    3.0108    1.3090    0.5297 B   0  0  0  0  0  0  0  0  0  0  0  0
    6.3729    1.8582   -0.9160 B   0  0  0  0  0  0  0  0  0  0  0  0
   -6.5277    4.0456   -0.1608 B   0  0  0  0  0  0  0  0  0  0  0  0
   -4.8736    3.4948   -0.3884 B   0  0  0  0  0  0  0  0  0  0  0  0
   -3.4155    3.8801   -0.6064 B   0  0  0  0  0  0  0  0  0  0  0  0
   -2.0235    3.2206   -0.6767 B   0  0  0  0  0  0  0  0  0  0  0  0
   -0.4974    3.2796   -0.8970 B   0  0  0  0  0  0  0  0  0  0  0  0
    0.7107    2.3324   -0.7457 B   0  0  0  0  0  0  0  0  0  0  0  0
    2.3353    2.4781   -0.4754 B   0  0  0  0  0  0  0  0  0  0  0  0
    3.8161    2.6195   -0.0941 B   0  0  0  0  0  0  0  0  0  0  0  0
    5.3698    2.8646   -0.1489 B   0  0  0  0  0  0  0  0  0  0  0  0
    6.0551    4.0800    0.6312 B   0  0  0  0  0  0  0  0  0  0  0  0
    6.2041    5.1477    0.1463 H   0  0  0  0  0  0  0  0  0  0  0  0
    8.2184   -1.1210    1.7268 H   0  0  0  0  0  0  0  0  0  0  0  0
    6.6224    1.9818   -2.0674 H   0  0  0  0  0  0  0  0  0  0  0  0
   -7.0900   -5.2506   -0.7538 H   0  0  0  0  0  0  0  0  0  0  0  0
   -6.7912    5.1815   -0.2852 H   0  0  0  0  0  0  0  0  0  0  0  0
    9.1569    1.8466    0.7900 H   0  0  0  0  0  0  0  0  0  0  0  0
   -8.8277   -0.3758    0.3286 H   0  0  0  0  0  0  0  0  0  0  0  0
    6.7839   -5.8690   -1.4465 H   0  0  0  0  0  0  0  0  0  0  0  0
   -8.7247    3.0012    0.6388 H   0  0  0  0  0  0  0  0  0  0  0  0
    7.8918   -2.8835   -1.4737 H   0  0  0  0  0  0  0  0  0  0  0  0
    6.4282    3.9996    1.7485 H   0  0  0  0  0  0  0  0  0  0  0  0
   -7.2249   -5.2823    1.2187 H   0  0  0  0  0  0  0  0  0  0  0  0
  1  2  1  0  0  0  0
  2  3  1  0  0  0  0
  3  4  1  0  0  0  0
  4  5  1  0  0  0  0
  3  6  1  0  0  0  0
  6  7  4  0  0  0  0
  7  8  4  0  0  0  0
  8  9  4  0  0  0  0
  9 10  1  0  0  0  0
 10 11  2  0  0  0  0
 11 12  4  0  0  0  0
 12 13  4  0  0  0  0
 13 14  1  0  0  0  0
 14 15  3  0  0  0  0
 13 16  1  0  0  0  0
 16 17  3  0  0  0  0
  9 18  4  0  0  0  0
  6 19  4  0  0  0  0
 18 19  4  0  0  0  0
  1 20  1  0  0  0  0
  1 21  1  0  0  0  0
  1 22  1  0  0  0  0
  2 23  1  0  0  0  0
  2 24  1  0  0  0  0
  4 25  1  0  0  0  0
  4 26  1  0  0  0  0
  5 27  1  0  0  0  0
  5 28  1  0  0  0  0
  5 29  1  0  0  0  0
  7 30  1  0  0  0  0
  8 31  1  0  0  0  0
 10 32  1  0  0  0  0
 11 33  1  0  0  0  0
 12 34  1  0  0  0  0
 18 35  1  0  0  0  0
 19 36  1  0  0  0  0
 38 39  1  0  0  0  0
 40 41  2  0  0  0  0
 42 43  2  0  0  0  0
 37 44  1  0  0  0  0
 38 44  1  0  0  0  0
 38 45  1  0  0  0  0
 44 45  1  0  0  0  0
 39 46  1  0  0  0  0
 40 47  1  0  0  0  0
 46 47  1  0  0  0  0
 41 48  1  0  0  0  0
 42 48  1  0  0  0  0
 42 49  1  0  0  0  0
 48 49  1  0  0  0  0
 42 50  1  0  0  0  0
 43 50  1  0  0  0  0
 49 50  1  0  0  0  0
 45 51  1  0  0  0  0
 45 52  1  0  0  0  0
 51 52  1  0  0  0  0
 38 53  1  0  0  0  0
 39 53  1  0  0  0  0
 52 53  1  0  0  0  0
 39 54  1  0  0  0  0
 46 54  1  0  0  0  0
 53 54  1  0  0  0  0
 46 55  1  0  0  0  0
 47 55  1  0  0  0  0
 54 55  1  0  0  0  0
 40 56  1  0  0  0  0
 47 56  1  0  0  0  0
 55 56  1  0  0  0  0
 41 57  1  0  0  0  0
 48 57  1  0  0  0  0
 48 58  1  0  0  0  0
 49 58  1  0  0  0  0
 57 58  1  0  0  0  0
 49 59  1  0  0  0  0
 58 59  1  0  0  0  0
 59 60  1  0  0  0  0
 51 61  1  0  0  0  0
 52 61  1  0  0  0  0
 53 62  1  0  0  0  0
 54 62  1  0  0  0  0
 54 63  1  0  0  0  0
 55 63  1  0  0  0  0
 62 63  1  0  0  0  0
 56 64  1  0  0  0  0
 57 64  1  0  0  0  0
 57 65  1  0  0  0  0
 58 65  1  0  0  0  0
 64 65  1  0  0  0  0
 59 66  1  0  0  0  0
 60 66  1  0  0  0  0
 60 67  1  0  0  0  0
 66 67  1  0  0  0  0
 61 68  1  0  0  0  0
 61 69  1  0  0  0  0
 68 69  1  0  0  0  0
 62 70  1  0  0  0  0
 63 71  1  0  0  0  0
 64 72  1  0  0  0  0
 65 73  1  0  0  0  0
 72 73  1  0  0  0  0
 66 74  1  0  0  0  0
 68 75  1  0  0  0  0
 69 75  1  0  0  0  0
 69 76  1  0  0  0  0
 70 76  1  0  0  0  0
 75 76  1  0  0  0  0
 70 77  1  0  0  0  0
 76 77  1  0  0  0  0
 70 78  1  0  0  0  0
 71 78  1  0  0  0  0
 77 78  1  0  0  0  0
 71 79  1  0  0  0  0
 78 79  1  0  0  0  0
 71 80  1  0  0  0  0
 72 80  1  0  0  0  0
 79 80  1  0  0  0  0
 72 81  1  0  0  0  0
 73 81  1  0  0  0  0
 80 81  1  0  0  0  0
 73 82  1  0  0  0  0
 81 82  1  0  0  0  0
 74 83  1  0  0  0  0
 82 83  1  0  0  0  0
 83 84  1  0  0  0  0
 84 85  1  0  0  0  0
 60 86  1  0  0  0  0
 74 87  1  0  0  0  0
 37 88  1  0  0  0  0
 75 89  1  0  0  0  0
 67 90  1  0  0  0  0
 51 91  1  0  0  0  0
 43 92  1  0  0  0  0
 68 93  1  0  0  0  0
 50 94  1  0  0  0  0
 84 95  1  0  0  0  0
 37 96  1  0  0  0  0
M  END
