 xtb: 6.7.1pre (5071a88)
          09012620283D

 91126  0     0  0            999 V2000
   -4.0193   -0.2286   11.0793 C   0  0  0  0  0  0  0  0  0  0  0  0
   -3.8420   -0.8989    9.7233 C   0  0  0  0  0  0  0  0  0  0  0  0
   -2.8545   -0.1948    8.8930 N   0  0  0  0  0  0  0  0  0  0  0  0
   -3.3798    0.5433    7.7362 C   0  0  0  0  0  0  0  0  0  0  0  0
   -3.8007    1.9529    8.1224 C   0  0  0  0  0  0  0  0  0  0  0  0
   -1.4894   -0.2545    9.1558 C   0  0  0  0  0  0  0  0  0  0  0  0
   -0.9345   -1.1950   10.0392 C   0  0  0  0  0  0  0  0  0  0  0  0
    0.4432   -1.2615   10.3052 C   0  0  0  0  0  0  0  0  0  0  0  0
    1.3328   -0.3869    9.6842 C   0  0  0  0  0  0  0  0  0  0  0  0
    2.7637   -0.4675   10.0098 C   0  0  0  0  0  0  0  0  0  0  0  0
    3.7475   -0.2522    9.1214 C   0  0  0  0  0  0  0  0  0  0  0  0
    5.1521   -0.3498    9.4770 C   0  0  0  0  0  0  0  0  0  0  0  0
    6.2046   -0.1440    8.6589 C   0  0  0  0  0  0  0  0  0  0  0  0
    6.0550    0.2150    7.2898 C   0  0  0  0  0  0  0  0  0  0  0  0
    5.9194    0.5104    6.1757 N   0  0  0  0  0  0  0  0  0  0  0  0
    7.5239   -0.2849    9.1769 C   0  0  0  0  0  0  0  0  0  0  0  0
    8.5896   -0.4050    9.6202 N   0  0  0  0  0  0  0  0  0  0  0  0
    0.8088    0.5706    8.8179 C   0  0  0  0  0  0  0  0  0  0  0  0
   -0.5711    0.6263    8.5601 C   0  0  0  0  0  0  0  0  0  0  0  0
   -4.7931   -0.7460   11.6554 H   0  0  0  0  0  0  0  0  0  0  0  0
   -3.0979   -0.2441   11.6685 H   0  0  0  0  0  0  0  0  0  0  0  0
   -4.3235    0.8166   10.9676 H   0  0  0  0  0  0  0  0  0  0  0  0
   -3.5810   -1.9566    9.8399 H   0  0  0  0  0  0  0  0  0  0  0  0
   -4.8194   -0.9029    9.2246 H   0  0  0  0  0  0  0  0  0  0  0  0
   -2.6604    0.5699    6.9095 H   0  0  0  0  0  0  0  0  0  0  0  0
   -4.2503    0.0167    7.3247 H   0  0  0  0  0  0  0  0  0  0  0  0
   -4.6220    1.9342    8.8456 H   0  0  0  0  0  0  0  0  0  0  0  0
   -2.9753    2.5153    8.5692 H   0  0  0  0  0  0  0  0  0  0  0  0
   -4.1464    2.4986    7.2388 H   0  0  0  0  0  0  0  0  0  0  0  0
   -1.5617   -1.9217   10.5456 H   0  0  0  0  0  0  0  0  0  0  0  0
    0.8031   -2.0186   10.9979 H   0  0  0  0  0  0  0  0  0  0  0  0
    2.9895   -0.7396   11.0388 H   0  0  0  0  0  0  0  0  0  0  0  0
    3.4931   -0.0088    8.0908 H   0  0  0  0  0  0  0  0  0  0  0  0
    5.3498   -0.6187   10.5168 H   0  0  0  0  0  0  0  0  0  0  0  0
    1.4534    1.3016    8.3365 H   0  0  0  0  0  0  0  0  0  0  0  0
   -0.9071    1.4092    7.8870 H   0  0  0  0  0  0  0  0  0  0  0  0
   -4.7806   -2.6045    0.3173 B   0  0  0  0  0  0  0  0  0  0  0  0
   -4.5695   -1.3567   -0.6480 B   0  0  0  0  0  0  0  0  0  0  0  0
   -4.4639   -0.2474   -1.8829 B   0  0  0  0  0  0  0  0  0  0  0  0
   -3.3965   -2.6620   -0.5028 B   0  0  0  0  0  0  0  0  0  0  0  0
   -3.0380    0.1776   -1.4048 B   0  0  0  0  0  0  0  0  0  0  0  0
   -4.3909    0.3426   -0.1924 B   0  0  0  0  0  0  0  0  0  0  0  0
   -5.0310    1.4031    0.8192 B   0  0  0  0  0  0  0  0  0  0  0  0
   -4.6201    2.9864    0.9976 B   0  0  0  0  0  0  0  0  0  0  0  0
   -2.8089    0.5128    0.1995 B   0  0  0  0  0  0  0  0  0  0  0  0
   -3.2186    3.2275    1.7932 B   0  0  0  0  0  0  0  0  0  0  0  0
   -2.1611   -3.7758   -0.5843 B   0  0  0  0  0  0  0  0  0  0  0  0
   -1.8769   -2.2481   -0.9334 B   0  0  0  0  0  0  0  0  0  0  0  0
   -1.6972   -0.6133   -0.8358 B   0  0  0  0  0  0  0  0  0  0  0  0
   -0.5844   -3.2190   -0.8350 B   0  0  0  0  0  0  0  0  0  0  0  0
   -0.2198   -0.1484   -0.3118 B   0  0  0  0  0  0  0  0  0  0  0  0
   -1.3950    0.0358    0.8521 B   0  0  0  0  0  0  0  0  0  0  0  0
   -1.7757    1.6621    0.7592 B   0  0  0  0  0  0  0  0  0  0  0  0
   -1.8975    3.2370    0.8826 B   0  0  0  0  0  0  0  0  0  0  0  0
   -0.2153    1.0372    1.0697 B   0  0  0  0  0  0  0  0  0  0  0  0
   -0.7521    4.3480    0.5584 B   0  0  0  0  0  0  0  0  0  0  0  0
    0.8265   -4.1129   -0.7400 B   0  0  0  0  0  0  0  0  0  0  0  0
    0.9251   -2.5054   -0.7497 B   0  0  0  0  0  0  0  0  0  0  0  0
    1.2144   -0.9490   -0.5870 B   0  0  0  0  0  0  0  0  0  0  0  0
    2.2007   -3.4026   -0.1682 B   0  0  0  0  0  0  0  0  0  0  0  0
    2.6220   -0.1957   -0.2930 B   0  0  0  0  0  0  0  0  0  0  0  0
    1.2341    0.5516    0.1426 B   0  0  0  0  0  0  0  0  0  0  0  0
    1.1248    2.0009    1.0430 B   0  0  0  0  0  0  0  0  0  0  0  0
    0.5366    3.4372    0.6180 B   0  0  0  0  0  0  0  0  0  0  0  0
    2.4580    1.6726    0.0875 B   0  0  0  0  0  0  0  0  0  0  0  0
    1.2136    3.0171   -0.8530 B   0  0  0  0  0  0  0  0  0  0  0  0
    3.2202   -3.8508    1.1044 B   0  0  0  0  0  0  0  0  0  0  0  0
    3.6240   -2.6535    0.0637 B   0  0  0  0  0  0  0  0  0  0  0  0
    4.0250   -1.1219   -0.2366 B   0  0  0  0  0  0  0  0  0  0  0  0
    4.4174   -2.8355    1.4203 B   0  0  0  0  0  0  0  0  0  0  0  0
    5.3636   -0.2419   -0.6898 B   0  0  0  0  0  0  0  0  0  0  0  0
    4.1041    0.5310   -0.0135 B   0  0  0  0  0  0  0  0  0  0  0  0
    4.0181    2.3218   -0.0338 B   0  0  0  0  0  0  0  0  0  0  0  0
    2.8218    3.0968   -0.9129 B   0  0  0  0  0  0  0  0  0  0  0  0
    5.4220    1.4583   -0.1853 B   0  0  0  0  0  0  0  0  0  0  0  0
    4.2961    3.5501   -1.0140 B   0  0  0  0  0  0  0  0  0  0  0  0
   -5.1687   -3.0949    1.3107 H   0  0  0  0  0  0  0  0  0  0  0  0
   -5.7161   -2.0764   -0.3935 H   0  0  0  0  0  0  0  0  0  0  0  0
   -5.2640   -0.1207   -2.7417 H   0  0  0  0  0  0  0  0  0  0  0  0
   -5.7711    1.0074    1.6646 H   0  0  0  0  0  0  0  0  0  0  0  0
   -5.3645    3.8431    0.6720 H   0  0  0  0  0  0  0  0  0  0  0  0
   -3.2343    3.2250    2.9757 H   0  0  0  0  0  0  0  0  0  0  0  0
   -2.3593   -4.9262   -0.4732 H   0  0  0  0  0  0  0  0  0  0  0  0
   -0.8965    5.4755    0.2443 H   0  0  0  0  0  0  0  0  0  0  0  0
    0.8223   -5.2498   -1.0233 H   0  0  0  0  0  0  0  0  0  0  0  0
    0.5537    2.6943   -1.7837 H   0  0  0  0  0  0  0  0  0  0  0  0
    2.9703   -4.8176    1.7172 H   0  0  0  0  0  0  0  0  0  0  0  0
    5.2631   -2.5125    2.1565 H   0  0  0  0  0  0  0  0  0  0  0  0
    6.3848   -0.6467   -1.0956 H   0  0  0  0  0  0  0  0  0  0  0  0
    6.5032    1.8382    0.0650 H   0  0  0  0  0  0  0  0  0  0  0  0
    5.1389    4.2524   -1.4154 H   0  0  0  0  0  0  0  0  0  0  0  0
  1  2  1  0  0  0  0
  2  3  1  0  0  0  0
  3  4  1  0  0  0  0
  4  5  1  0  0  0  0
  3  6  1  0  0  0  0
  6  7  4  0  0  0  0
  7  8  4  0  0  0  0
  8  9  4  0  0  0  0
  9 10  1  0  0  0  0
 10 11  2  0  0  0  0
 11 12  4  0  0  0  0
 12 13  2  0  0  0  0
 13 14  1  0  0  0  0
 14 15  3  0  0  0  0
 13 16  1  0  0  0  0
 16 17  3  0  0  0  0
  9 18  4  0  0  0  0
  6 19  4  0  0  0  0
 18 19  4  0  0  0  0
  1 20  1  0  0  0  0
  1 21  1  0  0  0  0
  1 22  1  0  0  0  0
  2 23  1  0  0  0  0
  2 24  1  0  0  0  0
  4 25  1  0  0  0  0
  4 26  1  0  0  0  0
  5 27  1  0  0  0  0
  5 28  1  0  0  0  0
  5 29  1  0  0  0  0
  7 30  1  0  0  0  0
  8 31  1  0  0  0  0
 10 32  1  0  0  0  0
 11 33  1  0  0  0  0
 12 34  1  0  0  0  0
 18 35  1  0  0  0  0
 19 36  1  0  0  0  0
 37 38  1  0  0  0  0
 38 39  1  0  0  0  0
 37 40  1  0  0  0  0
 38 40  1  0  0  0  0
 39 41  1  0  0  0  0
 38 42  1  0  0  0  0
 39 42  1  0  0  0  0
 41 42  1  0  0  0  0
 42 43  1  0  0  0  0
 43 44  1  0  0  0  0
 41 45  1  0  0  0  0
 42 45  1  0  0  0  0
 44 46  1  0  0  0  0
 40 47  1  0  0  0  0
 40 48  1  0  0  0  0
 47 48  1  0  0  0  0
 41 49  1  0  0  0  0
 45 49  1  0  0  0  0
 48 49  1  0  0  0  0
 47 50  1  0  0  0  0
 48 50  1  0  0  0  0
 49 51  1  0  0  0  0
 45 52  1  0  0  0  0
 49 52  1  0  0  0  0
 51 52  1  0  0  0  0
 45 53  1  0  0  0  0
 52 53  1  0  0  0  0
 46 54  1  0  0  0  0
 53 54  1  0  0  0  0
 51 55  1  0  0  0  0
 52 55  1  0  0  0  0
 53 55  1  0  0  0  0
 54 56  1  0  0  0  0
 50 57  1  0  0  0  0
 50 58  1  0  0  0  0
 57 58  1  0  0  0  0
 51 59  1  0  0  0  0
 58 59  1  0  0  0  0
 57 60  1  0  0  0  0
 58 60  1  0  0  0  0
 59 61  1  0  0  0  0
 51 62  1  0  0  0  0
 55 62  1  0  0  0  0
 59 62  1  0  0  0  0
 61 62  1  0  0  0  0
 55 63  1  0  0  0  0
 62 63  1  0  0  0  0
 56 64  1  0  0  0  0
 63 64  1  0  0  0  0
 61 65  1  0  0  0  0
 62 65  1  0  0  0  0
 63 65  1  0  0  0  0
 64 66  1  0  0  0  0
 60 67  1  0  0  0  0
 60 68  1  0  0  0  0
 67 68  1  0  0  0  0
 61 69  1  0  0  0  0
 68 69  1  0  0  0  0
 67 70  1  0  0  0  0
 68 70  1  0  0  0  0
 69 71  1  0  0  0  0
 61 72  1  0  0  0  0
 69 72  1  0  0  0  0
 71 72  1  0  0  0  0
 65 73  1  0  0  0  0
 72 73  1  0  0  0  0
 65 74  1  0  0  0  0
 66 74  1  0  0  0  0
 73 74  1  0  0  0  0
 71 75  1  0  0  0  0
 72 75  1  0  0  0  0
 73 75  1  0  0  0  0
 73 76  1  0  0  0  0
 74 76  1  0  0  0  0
 37 77  1  0  0  0  0
 37 78  1  0  0  0  0
 38 78  1  0  0  0  0
 39 79  1  0  0  0  0
 43 80  1  0  0  0  0
 44 81  1  0  0  0  0
 46 82  1  0  0  0  0
 47 83  1  0  0  0  0
 56 84  1  0  0  0  0
 57 85  1  0  0  0  0
 66 86  1  0  0  0  0
 67 87  1  0  0  0  0
 70 88  1  0  0  0  0
 71 89  1  0  0  0  0
 75 90  1  0  0  0  0
 76 91  1  0  0  0  0
M  END
