 xtb: 6.7.1 (edcfbbe)
          09242620033D

 60110  0     0  0            999 V2000
   -5.9556    2.7964    0.6141 B   0  0  0  0  0  0  0  0  0  0  0  0
   -5.8893    1.0884    0.7836 B   0  0  0  0  0  0  0  0  0  0  0  0
   -4.5243    3.6446    1.0588 B   0  0  0  0  0  0  0  0  0  0  0  0
   -4.4674    1.9856    0.7581 B   0  0  0  0  0  0  0  0  0  0  0  0
   -4.4048    0.3060    0.5106 B   0  0  0  0  0  0  0  0  0  0  0  0
   -5.7704   -2.2395    0.0071 B   0  0  0  0  0  0  0  0  0  0  0  0
   -5.7070   -3.9477    0.1869 B   0  0  0  0  0  0  0  0  0  0  0  0
   -4.3449   -1.3483    0.2603 B   0  0  0  0  0  0  0  0  0  0  0  0
   -4.2855   -3.0291    0.0204 B   0  0  0  0  0  0  0  0  0  0  0  0
   -4.2227   -4.6895   -0.2696 B   0  0  0  0  0  0  0  0  0  0  0  0
   -3.0280    2.8977    0.7805 B   0  0  0  0  0  0  0  0  0  0  0  0
   -2.9696    1.2076    0.5311 B   0  0  0  0  0  0  0  0  0  0  0  0
   -1.6016    3.7996    0.6390 B   0  0  0  0  0  0  0  0  0  0  0  0
   -1.5395    2.1116    0.5952 B   0  0  0  0  0  0  0  0  0  0  0  0
   -1.4771    0.4228    0.4547 B   0  0  0  0  0  0  0  0  0  0  0  0
   -2.8467   -2.1401    0.2184 B   0  0  0  0  0  0  0  0  0  0  0  0
   -2.7825   -3.8322   -0.0135 B   0  0  0  0  0  0  0  0  0  0  0  0
   -1.4163   -1.2446    0.2571 B   0  0  0  0  0  0  0  0  0  0  0  0
   -1.3541   -2.9367    0.1503 B   0  0  0  0  0  0  0  0  0  0  0  0
   -1.2906   -4.6252    0.1241 B   0  0  0  0  0  0  0  0  0  0  0  0
   -0.1039    3.0101    0.7227 B   0  0  0  0  0  0  0  0  0  0  0  0
   -0.0422    1.3163    0.5179 B   0  0  0  0  0  0  0  0  0  0  0  0
    1.3313    3.8670    0.9963 B   0  0  0  0  0  0  0  0  0  0  0  0
    1.3910    2.2118    0.6581 B   0  0  0  0  0  0  0  0  0  0  0  0
    1.4512    0.5363    0.3953 B   0  0  0  0  0  0  0  0  0  0  0  0
    0.0801   -2.0277    0.1647 B   0  0  0  0  0  0  0  0  0  0  0  0
    0.1425   -3.7270    0.0106 B   0  0  0  0  0  0  0  0  0  0  0  0
    1.5127   -1.1357    0.2417 B   0  0  0  0  0  0  0  0  0  0  0  0
    1.5742   -2.8177    0.0358 B   0  0  0  0  0  0  0  0  0  0  0  0
    1.6333   -4.4778   -0.2729 B   0  0  0  0  0  0  0  0  0  0  0  0
    2.8201    3.1244    0.6630 B   0  0  0  0  0  0  0  0  0  0  0  0
    2.8851    1.4235    0.5132 B   0  0  0  0  0  0  0  0  0  0  0  0
    4.2535    4.0201    0.5581 B   0  0  0  0  0  0  0  0  0  0  0  0
    4.3189    2.3362    0.4839 B   0  0  0  0  0  0  0  0  0  0  0  0
    4.3794    0.6437    0.3560 B   0  0  0  0  0  0  0  0  0  0  0  0
    3.0072   -1.9161    0.1224 B   0  0  0  0  0  0  0  0  0  0  0  0
    3.0675   -3.6214    0.0196 B   0  0  0  0  0  0  0  0  0  0  0  0
    4.4413   -1.0267    0.2578 B   0  0  0  0  0  0  0  0  0  0  0  0
    4.5054   -2.7214    0.1553 B   0  0  0  0  0  0  0  0  0  0  0  0
    4.5654   -4.4067    0.1077 B   0  0  0  0  0  0  0  0  0  0  0  0
    5.7489    3.2032    0.8060 B   0  0  0  0  0  0  0  0  0  0  0  0
    5.8034    1.5715    0.2659 B   0  0  0  0  0  0  0  0  0  0  0  0
    5.9323   -1.8461    0.3374 B   0  0  0  0  0  0  0  0  0  0  0  0
    5.9909   -3.4810   -0.1846 B   0  0  0  0  0  0  0  0  0  0  0  0
   -6.9168    3.3820    0.2836 H   0  0  0  0  0  0  0  0  0  0  0  0
   -6.8124    0.5102    1.2152 H   0  0  0  0  0  0  0  0  0  0  0  0
   -4.6168    4.7025    1.5629 H   0  0  0  0  0  0  0  0  0  0  0  0
   -6.7400   -1.7342   -0.4144 H   0  0  0  0  0  0  0  0  0  0  0  0
   -6.6191   -4.5997    0.5317 H   0  0  0  0  0  0  0  0  0  0  0  0
   -4.2417   -5.7546   -0.7668 H   0  0  0  0  0  0  0  0  0  0  0  0
   -1.6524    4.9709    0.5445 H   0  0  0  0  0  0  0  0  0  0  0  0
   -1.2535   -5.7946    0.2435 H   0  0  0  0  0  0  0  0  0  0  0  0
    1.3006    4.9836    1.3639 H   0  0  0  0  0  0  0  0  0  0  0  0
    1.6801   -5.6034   -0.6113 H   0  0  0  0  0  0  0  0  0  0  0  0
    4.2630    5.1673    0.3012 H   0  0  0  0  0  0  0  0  0  0  0  0
    4.6683   -5.5452    0.3812 H   0  0  0  0  0  0  0  0  0  0  0  0
    6.6703    3.7703    1.2589 H   0  0  0  0  0  0  0  0  0  0  0  0
    6.7602    1.1684   -0.2773 H   0  0  0  0  0  0  0  0  0  0  0  0
    6.8617   -1.3665    0.8655 H   0  0  0  0  0  0  0  0  0  0  0  0
    6.9410   -3.9859   -0.6518 H   0  0  0  0  0  0  0  0  0  0  0  0
  1  2  1  0  0  0  0
  1  3  1  0  0  0  0
  1  4  1  0  0  0  0
  2  4  1  0  0  0  0
  3  4  1  0  0  0  0
  2  5  1  0  0  0  0
  4  5  1  0  0  0  0
  6  7  1  0  0  0  0
  5  8  1  0  0  0  0
  6  8  1  0  0  0  0
  6  9  1  0  0  0  0
  7  9  1  0  0  0  0
  8  9  1  0  0  0  0
  7 10  1  0  0  0  0
  9 10  1  0  0  0  0
  3 11  1  0  0  0  0
  4 11  1  0  0  0  0
  4 12  1  0  0  0  0
  5 12  1  0  0  0  0
 11 12  1  0  0  0  0
 11 13  1  0  0  0  0
 11 14  1  0  0  0  0
 12 14  1  0  0  0  0
 13 14  1  0  0  0  0
 12 15  1  0  0  0  0
 14 15  1  0  0  0  0
  8 16  1  0  0  0  0
  9 16  1  0  0  0  0
  9 17  1  0  0  0  0
 10 17  1  0  0  0  0
 16 17  1  0  0  0  0
 15 18  1  0  0  0  0
 16 18  1  0  0  0  0
 16 19  1  0  0  0  0
 17 19  1  0  0  0  0
 18 19  1  0  0  0  0
 17 20  1  0  0  0  0
 19 20  1  0  0  0  0
 13 21  1  0  0  0  0
 14 21  1  0  0  0  0
 14 22  1  0  0  0  0
 15 22  1  0  0  0  0
 21 22  1  0  0  0  0
 21 23  1  0  0  0  0
 21 24  1  0  0  0  0
 22 24  1  0  0  0  0
 23 24  1  0  0  0  0
 22 25  1  0  0  0  0
 24 25  1  0  0  0  0
 18 26  1  0  0  0  0
 19 26  1  0  0  0  0
 19 27  1  0  0  0  0
 20 27  1  0  0  0  0
 26 27  1  0  0  0  0
 25 28  1  0  0  0  0
 26 28  1  0  0  0  0
 26 29  1  0  0  0  0
 27 29  1  0  0  0  0
 28 29  1  0  0  0  0
 27 30  1  0  0  0  0
 29 30  1  0  0  0  0
 23 31  1  0  0  0  0
 24 31  1  0  0  0  0
 24 32  1  0  0  0  0
 25 32  1  0  0  0  0
 31 32  1  0  0  0  0
 31 33  1  0  0  0  0
 31 34  1  0  0  0  0
 32 34  1  0  0  0  0
 33 34  1  0  0  0  0
 32 35  1  0  0  0  0
 34 35  1  0  0  0  0
 28 36  1  0  0  0  0
 29 36  1  0  0  0  0
 29 37  1  0  0  0  0
 30 37  1  0  0  0  0
 36 37  1  0  0  0  0
 35 38  1  0  0  0  0
 36 38  1  0  0  0  0
 36 39  1  0  0  0  0
 37 39  1  0  0  0  0
 38 39  1  0  0  0  0
 37 40  1  0  0  0  0
 39 40  1  0  0  0  0
 33 41  1  0  0  0  0
 34 41  1  0  0  0  0
 34 42  1  0  0  0  0
 35 42  1  0  0  0  0
 41 42  1  0  0  0  0
 38 43  1  0  0  0  0
 39 43  1  0  0  0  0
 39 44  1  0  0  0  0
 40 44  1  0  0  0  0
 43 44  1  0  0  0  0
  1 45  1  0  0  0  0
  2 46  1  0  0  0  0
  3 47  1  0  0  0  0
  6 48  1  0  0  0  0
  7 49  1  0  0  0  0
 10 50  1  0  0  0  0
 13 51  1  0  0  0  0
 20 52  1  0  0  0  0
 23 53  1  0  0  0  0
 30 54  1  0  0  0  0
 33 55  1  0  0  0  0
 40 56  1  0  0  0  0
 41 57  1  0  0  0  0
 42 58  1  0  0  0  0
 43 59  1  0  0  0  0
 44 60  1  0  0  0  0
M  END
