 xtb: 6.7.1 (edcfbbe)
          09242620043D

 60110  0     0  0            999 V2000
   -5.8120    3.5388    0.1535 B   0  0  0  0  0  0  0  0  0  0  0  0
   -5.8373    1.8624    0.4923 B   0  0  0  0  0  0  0  0  0  0  0  0
   -4.3450    4.3603    0.5309 B   0  0  0  0  0  0  0  0  0  0  0  0
   -4.3703    2.6769    0.3836 B   0  0  0  0  0  0  0  0  0  0  0  0
   -4.3913    0.9785    0.3069 B   0  0  0  0  0  0  0  0  0  0  0  0
   -5.8847   -1.5339    0.5273 B   0  0  0  0  0  0  0  0  0  0  0  0
   -5.9059   -3.2180    0.2311 B   0  0  0  0  0  0  0  0  0  0  0  0
   -4.4145   -0.6951    0.3252 B   0  0  0  0  0  0  0  0  0  0  0  0
   -4.4409   -2.3914    0.4387 B   0  0  0  0  0  0  0  0  0  0  0  0
   -4.4624   -4.0707    0.6294 B   0  0  0  0  0  0  0  0  0  0  0  0
   -2.8850    3.5123    0.3996 B   0  0  0  0  0  0  0  0  0  0  0  0
   -2.9117    1.8028    0.2966 B   0  0  0  0  0  0  0  0  0  0  0  0
   -1.4135    4.3194    0.1804 B   0  0  0  0  0  0  0  0  0  0  0  0
   -1.4381    2.6360    0.3149 B   0  0  0  0  0  0  0  0  0  0  0  0
   -1.4614    0.9421    0.4040 B   0  0  0  0  0  0  0  0  0  0  0  0
   -2.9585   -1.5604    0.3376 B   0  0  0  0  0  0  0  0  0  0  0  0
   -2.9792   -3.2670    0.4798 B   0  0  0  0  0  0  0  0  0  0  0  0
   -1.4848   -0.7380    0.4267 B   0  0  0  0  0  0  0  0  0  0  0  0
   -1.5086   -2.4336    0.3732 B   0  0  0  0  0  0  0  0  0  0  0  0
   -1.5309   -4.1195    0.2764 B   0  0  0  0  0  0  0  0  0  0  0  0
    0.0409    3.4702    0.3628 B   0  0  0  0  0  0  0  0  0  0  0  0
    0.0171    1.7627    0.3416 B   0  0  0  0  0  0  0  0  0  0  0  0
    1.5154    4.2798    0.5590 B   0  0  0  0  0  0  0  0  0  0  0  0
    1.4930    2.5960    0.4132 B   0  0  0  0  0  0  0  0  0  0  0  0
    1.4694    0.9002    0.2962 B   0  0  0  0  0  0  0  0  0  0  0  0
   -0.0298   -1.6006    0.3912 B   0  0  0  0  0  0  0  0  0  0  0  0
   -0.0536   -3.3072    0.4490 B   0  0  0  0  0  0  0  0  0  0  0  0
    1.4460   -0.7804    0.3215 B   0  0  0  0  0  0  0  0  0  0  0  0
    1.4225   -2.4725    0.4850 B   0  0  0  0  0  0  0  0  0  0  0  0
    1.3980   -4.1524    0.6649 B   0  0  0  0  0  0  0  0  0  0  0  0
    2.9660    3.4305    0.3249 B   0  0  0  0  0  0  0  0  0  0  0  0
    2.9454    1.7225    0.4085 B   0  0  0  0  0  0  0  0  0  0  0  0
    4.4467    4.2356    0.1811 B   0  0  0  0  0  0  0  0  0  0  0  0
    4.4255    2.5542    0.3424 B   0  0  0  0  0  0  0  0  0  0  0  0
    4.3992    0.8573    0.4240 B   0  0  0  0  0  0  0  0  0  0  0  0
    2.8986   -1.6403    0.4542 B   0  0  0  0  0  0  0  0  0  0  0  0
    2.8716   -3.3499    0.4092 B   0  0  0  0  0  0  0  0  0  0  0  0
    4.3760   -0.8159    0.4446 B   0  0  0  0  0  0  0  0  0  0  0  0
    4.3550   -2.5143    0.4011 B   0  0  0  0  0  0  0  0  0  0  0  0
    4.3290   -4.1991    0.2774 B   0  0  0  0  0  0  0  0  0  0  0  0
    5.8937    3.3787    0.5547 B   0  0  0  0  0  0  0  0  0  0  0  0
    5.8712    1.6973    0.2314 B   0  0  0  0  0  0  0  0  0  0  0  0
    5.8238   -1.7008    0.2683 B   0  0  0  0  0  0  0  0  0  0  0  0
    5.8000   -3.3745    0.6278 B   0  0  0  0  0  0  0  0  0  0  0  0
   -6.7367    4.1358   -0.2534 H   0  0  0  0  0  0  0  0  0  0  0  0
   -6.8015    1.3794    0.9449 H   0  0  0  0  0  0  0  0  0  0  0  0
   -4.3909    5.4776    0.8920 H   0  0  0  0  0  0  0  0  0  0  0  0
   -6.8361   -1.0130    0.9646 H   0  0  0  0  0  0  0  0  0  0  0  0
   -6.8466   -3.7992   -0.1618 H   0  0  0  0  0  0  0  0  0  0  0  0
   -4.5390   -5.1783    1.0143 H   0  0  0  0  0  0  0  0  0  0  0  0
   -1.4036    5.4675   -0.0740 H   0  0  0  0  0  0  0  0  0  0  0  0
   -1.5520   -5.2707    0.0369 H   0  0  0  0  0  0  0  0  0  0  0  0
    1.5393    5.4203    0.8437 H   0  0  0  0  0  0  0  0  0  0  0  0
    1.3906   -5.2854    0.9791 H   0  0  0  0  0  0  0  0  0  0  0  0
    4.5216    5.3510   -0.1814 H   0  0  0  0  0  0  0  0  0  0  0  0
    4.3712   -5.3236   -0.0615 H   0  0  0  0  0  0  0  0  0  0  0  0
    6.8366    3.9544    0.9502 H   0  0  0  0  0  0  0  0  0  0  0  0
    6.8207    1.1812   -0.2161 H   0  0  0  0  0  0  0  0  0  0  0  0
    6.7861   -1.2213   -0.1925 H   0  0  0  0  0  0  0  0  0  0  0  0
    6.7278   -3.9674    1.0329 H   0  0  0  0  0  0  0  0  0  0  0  0
  1  2  1  0  0  0  0
  1  3  1  0  0  0  0
  1  4  1  0  0  0  0
  2  4  1  0  0  0  0
  3  4  1  0  0  0  0
  2  5  1  0  0  0  0
  4  5  1  0  0  0  0
  6  7  1  0  0  0  0
  5  8  1  0  0  0  0
  6  8  1  0  0  0  0
  6  9  1  0  0  0  0
  7  9  1  0  0  0  0
  8  9  1  0  0  0  0
  7 10  1  0  0  0  0
  9 10  1  0  0  0  0
  3 11  1  0  0  0  0
  4 11  1  0  0  0  0
  4 12  1  0  0  0  0
  5 12  1  0  0  0  0
 11 12  1  0  0  0  0
 11 13  1  0  0  0  0
 11 14  1  0  0  0  0
 12 14  1  0  0  0  0
 13 14  1  0  0  0  0
 12 15  1  0  0  0  0
 14 15  1  0  0  0  0
  8 16  1  0  0  0  0
  9 16  1  0  0  0  0
  9 17  1  0  0  0  0
 10 17  1  0  0  0  0
 16 17  1  0  0  0  0
 15 18  1  0  0  0  0
 16 18  1  0  0  0  0
 16 19  1  0  0  0  0
 17 19  1  0  0  0  0
 18 19  1  0  0  0  0
 17 20  1  0  0  0  0
 19 20  1  0  0  0  0
 13 21  1  0  0  0  0
 14 21  1  0  0  0  0
 14 22  1  0  0  0  0
 15 22  1  0  0  0  0
 21 22  1  0  0  0  0
 21 23  1  0  0  0  0
 21 24  1  0  0  0  0
 22 24  1  0  0  0  0
 23 24  1  0  0  0  0
 22 25  1  0  0  0  0
 24 25  1  0  0  0  0
 18 26  1  0  0  0  0
 19 26  1  0  0  0  0
 19 27  1  0  0  0  0
 20 27  1  0  0  0  0
 26 27  1  0  0  0  0
 25 28  1  0  0  0  0
 26 28  1  0  0  0  0
 26 29  1  0  0  0  0
 27 29  1  0  0  0  0
 28 29  1  0  0  0  0
 27 30  1  0  0  0  0
 29 30  1  0  0  0  0
 23 31  1  0  0  0  0
 24 31  1  0  0  0  0
 24 32  1  0  0  0  0
 25 32  1  0  0  0  0
 31 32  1  0  0  0  0
 31 33  1  0  0  0  0
 31 34  1  0  0  0  0
 32 34  1  0  0  0  0
 33 34  1  0  0  0  0
 32 35  1  0  0  0  0
 34 35  1  0  0  0  0
 28 36  1  0  0  0  0
 29 36  1  0  0  0  0
 29 37  1  0  0  0  0
 30 37  1  0  0  0  0
 36 37  1  0  0  0  0
 35 38  1  0  0  0  0
 36 38  1  0  0  0  0
 36 39  1  0  0  0  0
 37 39  1  0  0  0  0
 38 39  1  0  0  0  0
 37 40  1  0  0  0  0
 39 40  1  0  0  0  0
 33 41  1  0  0  0  0
 34 41  1  0  0  0  0
 34 42  1  0  0  0  0
 35 42  1  0  0  0  0
 41 42  1  0  0  0  0
 38 43  1  0  0  0  0
 39 43  1  0  0  0  0
 39 44  1  0  0  0  0
 40 44  1  0  0  0  0
 43 44  1  0  0  0  0
  1 45  1  0  0  0  0
  2 46  1  0  0  0  0
  3 47  1  0  0  0  0
  6 48  1  0  0  0  0
  7 49  1  0  0  0  0
 10 50  1  0  0  0  0
 13 51  1  0  0  0  0
 20 52  1  0  0  0  0
 23 53  1  0  0  0  0
 30 54  1  0  0  0  0
 33 55  1  0  0  0  0
 40 56  1  0  0  0  0
 41 57  1  0  0  0  0
 42 58  1  0  0  0  0
 43 59  1  0  0  0  0
 44 60  1  0  0  0  0
M  END
