 xtb: 6.7.1 (edcfbbe)
          09242620043D

 60110  0     0  0            999 V2000
   -5.9050    3.6803    0.3072 B   0  0  0  0  0  0  0  0  0  0  0  0
   -5.9188    1.9646    0.1497 B   0  0  0  0  0  0  0  0  0  0  0  0
   -4.4465    4.4514   -0.1919 B   0  0  0  0  0  0  0  0  0  0  0  0
   -4.4577    2.7973    0.1343 B   0  0  0  0  0  0  0  0  0  0  0  0
   -4.4667    1.1235    0.4232 B   0  0  0  0  0  0  0  0  0  0  0  0
   -5.9356   -1.3448    1.0167 B   0  0  0  0  0  0  0  0  0  0  0  0
   -5.9530   -3.0583    0.8669 B   0  0  0  0  0  0  0  0  0  0  0  0
   -4.4765   -0.5255    0.7153 B   0  0  0  0  0  0  0  0  0  0  0  0
   -4.4889   -2.2030    0.9821 B   0  0  0  0  0  0  0  0  0  0  0  0
   -4.4958   -3.8606    1.2930 B   0  0  0  0  0  0  0  0  0  0  0  0
   -2.9801    3.6377    0.0353 B   0  0  0  0  0  0  0  0  0  0  0  0
   -2.9924    1.9645    0.4076 B   0  0  0  0  0  0  0  0  0  0  0  0
   -1.5131    4.4762    0.1019 B   0  0  0  0  0  0  0  0  0  0  0  0
   -1.5248    2.7956    0.2556 B   0  0  0  0  0  0  0  0  0  0  0  0
   -1.5356    1.1128    0.4591 B   0  0  0  0  0  0  0  0  0  0  0  0
   -3.0148   -1.3813    0.7640 B   0  0  0  0  0  0  0  0  0  0  0  0
   -3.0227   -3.0739    0.9983 B   0  0  0  0  0  0  0  0  0  0  0  0
   -1.5461   -0.5514    0.6920 B   0  0  0  0  0  0  0  0  0  0  0  0
   -1.5590   -2.2462    0.8009 B   0  0  0  0  0  0  0  0  0  0  0  0
   -1.5706   -3.9351    0.8574 B   0  0  0  0  0  0  0  0  0  0  0  0
   -0.0514    3.6385    0.2053 B   0  0  0  0  0  0  0  0  0  0  0  0
   -0.0649    1.9226    0.2290 B   0  0  0  0  0  0  0  0  0  0  0  0
    1.4199    4.4600    0.1500 B   0  0  0  0  0  0  0  0  0  0  0  0
    1.4065    2.7740    0.2421 B   0  0  0  0  0  0  0  0  0  0  0  0
    1.3936    1.0770    0.3266 B   0  0  0  0  0  0  0  0  0  0  0  0
   -0.0858   -1.4053    0.7290 B   0  0  0  0  0  0  0  0  0  0  0  0
   -0.0969   -3.0970    0.9597 B   0  0  0  0  0  0  0  0  0  0  0  0
    1.3828   -0.5900    0.5444 B   0  0  0  0  0  0  0  0  0  0  0  0
    1.3736   -2.2550    0.8800 B   0  0  0  0  0  0  0  0  0  0  0  0
    1.3632   -3.9022    1.2605 B   0  0  0  0  0  0  0  0  0  0  0  0
    2.8712    3.5933   -0.0199 B   0  0  0  0  0  0  0  0  0  0  0  0
    2.8655    1.9157    0.3269 B   0  0  0  0  0  0  0  0  0  0  0  0
    4.3432    4.3824   -0.2848 B   0  0  0  0  0  0  0  0  0  0  0  0
    4.3366    2.7338    0.0802 B   0  0  0  0  0  0  0  0  0  0  0  0
    4.3252    1.0613    0.3816 B   0  0  0  0  0  0  0  0  0  0  0  0
    2.8433   -1.4216    0.7474 B   0  0  0  0  0  0  0  0  0  0  0  0
    2.8284   -3.1241    0.9079 B   0  0  0  0  0  0  0  0  0  0  0  0
    4.3144   -0.5961    0.6132 B   0  0  0  0  0  0  0  0  0  0  0  0
    4.3053   -2.2863    0.7851 B   0  0  0  0  0  0  0  0  0  0  0  0
    4.2903   -3.9737    0.8677 B   0  0  0  0  0  0  0  0  0  0  0  0
    5.8029    3.5877    0.1798 B   0  0  0  0  0  0  0  0  0  0  0  0
    5.7867    1.8773    0.0494 B   0  0  0  0  0  0  0  0  0  0  0  0
    5.7664   -1.4865    0.5353 B   0  0  0  0  0  0  0  0  0  0  0  0
    5.7593   -3.1040    1.0969 B   0  0  0  0  0  0  0  0  0  0  0  0
   -6.8351    4.3007    0.6635 H   0  0  0  0  0  0  0  0  0  0  0  0
   -6.8814    1.4287   -0.2519 H   0  0  0  0  0  0  0  0  0  0  0  0
   -4.5055    5.4929   -0.7349 H   0  0  0  0  0  0  0  0  0  0  0  0
   -6.8724   -0.7891    1.4484 H   0  0  0  0  0  0  0  0  0  0  0  0
   -6.9047   -3.6686    0.5546 H   0  0  0  0  0  0  0  0  0  0  0  0
   -4.5478   -4.9176    1.8051 H   0  0  0  0  0  0  0  0  0  0  0  0
   -1.5124    5.6521    0.0592 H   0  0  0  0  0  0  0  0  0  0  0  0
   -1.5828   -5.1037    0.7257 H   0  0  0  0  0  0  0  0  0  0  0  0
    1.4518    5.6292    0.2750 H   0  0  0  0  0  0  0  0  0  0  0  0
    1.3672   -5.0001    1.6820 H   0  0  0  0  0  0  0  0  0  0  0  0
    4.4058    5.4260   -0.8220 H   0  0  0  0  0  0  0  0  0  0  0  0
    4.3368   -5.1324    0.6767 H   0  0  0  0  0  0  0  0  0  0  0  0
    6.7484    4.2029    0.5034 H   0  0  0  0  0  0  0  0  0  0  0  0
    6.7341    1.3233   -0.3569 H   0  0  0  0  0  0  0  0  0  0  0  0
    6.7207   -1.0583    0.0121 H   0  0  0  0  0  0  0  0  0  0  0  0
    6.6920   -3.6347    1.5719 H   0  0  0  0  0  0  0  0  0  0  0  0
  1  2  1  0  0  0  0
  1  3  1  0  0  0  0
  1  4  1  0  0  0  0
  2  4  1  0  0  0  0
  3  4  1  0  0  0  0
  2  5  1  0  0  0  0
  4  5  1  0  0  0  0
  6  7  1  0  0  0  0
  5  8  1  0  0  0  0
  6  8  1  0  0  0  0
  6  9  1  0  0  0  0
  7  9  1  0  0  0  0
  8  9  1  0  0  0  0
  7 10  1  0  0  0  0
  9 10  1  0  0  0  0
  3 11  1  0  0  0  0
  4 11  1  0  0  0  0
  4 12  1  0  0  0  0
  5 12  1  0  0  0  0
 11 12  1  0  0  0  0
 11 13  1  0  0  0  0
 11 14  1  0  0  0  0
 12 14  1  0  0  0  0
 13 14  1  0  0  0  0
 12 15  1  0  0  0  0
 14 15  1  0  0  0  0
  8 16  1  0  0  0  0
  9 16  1  0  0  0  0
  9 17  1  0  0  0  0
 10 17  1  0  0  0  0
 16 17  1  0  0  0  0
 15 18  1  0  0  0  0
 16 18  1  0  0  0  0
 16 19  1  0  0  0  0
 17 19  1  0  0  0  0
 18 19  1  0  0  0  0
 17 20  1  0  0  0  0
 19 20  1  0  0  0  0
 13 21  1  0  0  0  0
 14 21  1  0  0  0  0
 14 22  1  0  0  0  0
 15 22  1  0  0  0  0
 21 22  1  0  0  0  0
 21 23  1  0  0  0  0
 21 24  1  0  0  0  0
 22 24  1  0  0  0  0
 23 24  1  0  0  0  0
 22 25  1  0  0  0  0
 24 25  1  0  0  0  0
 18 26  1  0  0  0  0
 19 26  1  0  0  0  0
 19 27  1  0  0  0  0
 20 27  1  0  0  0  0
 26 27  1  0  0  0  0
 25 28  1  0  0  0  0
 26 28  1  0  0  0  0
 26 29  1  0  0  0  0
 27 29  1  0  0  0  0
 28 29  1  0  0  0  0
 27 30  1  0  0  0  0
 29 30  1  0  0  0  0
 23 31  1  0  0  0  0
 24 31  1  0  0  0  0
 24 32  1  0  0  0  0
 25 32  1  0  0  0  0
 31 32  1  0  0  0  0
 31 33  1  0  0  0  0
 31 34  1  0  0  0  0
 32 34  1  0  0  0  0
 33 34  1  0  0  0  0
 32 35  1  0  0  0  0
 34 35  1  0  0  0  0
 28 36  1  0  0  0  0
 29 36  1  0  0  0  0
 29 37  1  0  0  0  0
 30 37  1  0  0  0  0
 36 37  1  0  0  0  0
 35 38  1  0  0  0  0
 36 38  1  0  0  0  0
 36 39  1  0  0  0  0
 37 39  1  0  0  0  0
 38 39  1  0  0  0  0
 37 40  1  0  0  0  0
 39 40  1  0  0  0  0
 33 41  1  0  0  0  0
 34 41  1  0  0  0  0
 34 42  1  0  0  0  0
 35 42  1  0  0  0  0
 41 42  1  0  0  0  0
 38 43  1  0  0  0  0
 39 43  1  0  0  0  0
 39 44  1  0  0  0  0
 40 44  1  0  0  0  0
 43 44  1  0  0  0  0
  1 45  1  0  0  0  0
  2 46  1  0  0  0  0
  3 47  1  0  0  0  0
  6 48  1  0  0  0  0
  7 49  1  0  0  0  0
 10 50  1  0  0  0  0
 13 51  1  0  0  0  0
 20 52  1  0  0  0  0
 23 53  1  0  0  0  0
 30 54  1  0  0  0  0
 33 55  1  0  0  0  0
 40 56  1  0  0  0  0
 41 57  1  0  0  0  0
 42 58  1  0  0  0  0
 43 59  1  0  0  0  0
 44 60  1  0  0  0  0
M  END
