 xtb: 6.7.1pre (5071a88)
          09022615123D

 84120  0     0  0            999 V2000
    0.2825   -6.1508    6.6236 O   0  0  0  0  0  0  0  0  0  0  0  0
    0.3016   -4.7904    6.7096 C   0  0  0  0  0  0  0  0  0  0  0  0
    1.5092   -4.1287    6.5018 C   0  0  0  0  0  0  0  0  0  0  0  0
    1.5622   -2.7561    6.5817 C   0  0  0  0  0  0  0  0  0  0  0  0
    0.4224   -1.9880    6.8626 C   0  0  0  0  0  0  0  0  0  0  0  0
    0.5478   -0.5518    6.9336 C   0  0  0  0  0  0  0  0  0  0  0  0
   -0.4526    0.3396    7.0830 C   0  0  0  0  0  0  0  0  0  0  0  0
   -0.3136    1.7745    7.1736 C   0  0  0  0  0  0  0  0  0  0  0  0
   -1.4622    2.5463    7.3938 C   0  0  0  0  0  0  0  0  0  0  0  0
   -1.3845    3.9224    7.5085 C   0  0  0  0  0  0  0  0  0  0  0  0
   -2.4859    4.6938    7.7317 O   0  0  0  0  0  0  0  0  0  0  0  0
   -0.1564    4.5657    7.3985 C   0  0  0  0  0  0  0  0  0  0  0  0
    0.9863    3.8114    7.1702 C   0  0  0  0  0  0  0  0  0  0  0  0
    2.2108    4.3986    7.0470 O   0  0  0  0  0  0  0  0  0  0  0  0
    0.9131    2.4322    7.0597 C   0  0  0  0  0  0  0  0  0  0  0  0
   -0.7795   -2.6738    7.0719 C   0  0  0  0  0  0  0  0  0  0  0  0
   -0.8393   -4.0496    6.9984 C   0  0  0  0  0  0  0  0  0  0  0  0
   -0.6086   -6.4748    6.7987 H   0  0  0  0  0  0  0  0  0  0  0  0
    2.3893   -4.7124    6.2840 H   0  0  0  0  0  0  0  0  0  0  0  0
    2.5061   -2.2553    6.4229 H   0  0  0  0  0  0  0  0  0  0  0  0
    1.5645   -0.1901    6.8571 H   0  0  0  0  0  0  0  0  0  0  0  0
   -1.4700   -0.0176    7.1539 H   0  0  0  0  0  0  0  0  0  0  0  0
   -2.4234    2.0571    7.4833 H   0  0  0  0  0  0  0  0  0  0  0  0
   -3.2683    4.1317    7.7706 H   0  0  0  0  0  0  0  0  0  0  0  0
   -0.1142    5.6403    7.4918 H   0  0  0  0  0  0  0  0  0  0  0  0
    2.1182    5.3534    7.1448 H   0  0  0  0  0  0  0  0  0  0  0  0
    1.8271    1.8912    6.8876 H   0  0  0  0  0  0  0  0  0  0  0  0
   -1.6781   -2.1269    7.3066 H   0  0  0  0  0  0  0  0  0  0  0  0
   -1.7786   -4.5600    7.1705 H   0  0  0  0  0  0  0  0  0  0  0  0
   -4.8128   -2.6089    0.3219 B   0  0  0  0  0  0  0  0  0  0  0  0
   -4.5644   -1.3259   -0.5851 B   0  0  0  0  0  0  0  0  0  0  0  0
   -4.4342   -0.1805   -1.7859 B   0  0  0  0  0  0  0  0  0  0  0  0
   -3.4002   -2.6458   -0.4522 B   0  0  0  0  0  0  0  0  0  0  0  0
   -3.0106    0.2139   -1.2783 B   0  0  0  0  0  0  0  0  0  0  0  0
   -4.3743    0.3592   -0.0769 B   0  0  0  0  0  0  0  0  0  0  0  0
   -5.0323    1.4167    0.9276 B   0  0  0  0  0  0  0  0  0  0  0  0
   -4.6126    2.9984    1.0927 B   0  0  0  0  0  0  0  0  0  0  0  0
   -2.7984    0.5074    0.3395 B   0  0  0  0  0  0  0  0  0  0  0  0
   -3.2228    3.2605    1.9017 B   0  0  0  0  0  0  0  0  0  0  0  0
   -2.1672   -3.7620   -0.5237 B   0  0  0  0  0  0  0  0  0  0  0  0
   -1.8732   -2.2299   -0.8394 B   0  0  0  0  0  0  0  0  0  0  0  0
   -1.6850   -0.5976   -0.7120 B   0  0  0  0  0  0  0  0  0  0  0  0
   -0.5853   -3.2042   -0.7545 B   0  0  0  0  0  0  0  0  0  0  0  0
   -0.2112   -0.1456   -0.1765 B   0  0  0  0  0  0  0  0  0  0  0  0
   -1.3839    0.0282    0.9899 B   0  0  0  0  0  0  0  0  0  0  0  0
   -1.7619    1.6528    0.9130 B   0  0  0  0  0  0  0  0  0  0  0  0
   -1.8964    3.2291    1.0014 B   0  0  0  0  0  0  0  0  0  0  0  0
   -0.2017    1.0305    1.2090 B   0  0  0  0  0  0  0  0  0  0  0  0
   -0.7598    4.3350    0.6291 B   0  0  0  0  0  0  0  0  0  0  0  0
    0.8239   -4.1061   -0.6821 B   0  0  0  0  0  0  0  0  0  0  0  0
    0.9340   -2.5037   -0.6610 B   0  0  0  0  0  0  0  0  0  0  0  0
    1.2158   -0.9458   -0.4735 B   0  0  0  0  0  0  0  0  0  0  0  0
    2.2078   -3.4130   -0.1044 B   0  0  0  0  0  0  0  0  0  0  0  0
    2.6232   -0.1943   -0.1869 B   0  0  0  0  0  0  0  0  0  0  0  0
    1.2449    0.5369    0.2993 B   0  0  0  0  0  0  0  0  0  0  0  0
    1.1359    2.0065    1.1524 B   0  0  0  0  0  0  0  0  0  0  0  0
    0.5284    3.4267    0.7049 B   0  0  0  0  0  0  0  0  0  0  0  0
    2.4591    1.6681    0.1792 B   0  0  0  0  0  0  0  0  0  0  0  0
    1.1808    2.9815   -0.7714 B   0  0  0  0  0  0  0  0  0  0  0  0
    3.2643   -3.9256    1.1004 B   0  0  0  0  0  0  0  0  0  0  0  0
    3.6290   -2.6536    0.1420 B   0  0  0  0  0  0  0  0  0  0  0  0
    4.0272   -1.1209   -0.1647 B   0  0  0  0  0  0  0  0  0  0  0  0
    4.4786   -2.9344    1.4435 B   0  0  0  0  0  0  0  0  0  0  0  0
    5.3588   -0.2456   -0.6447 B   0  0  0  0  0  0  0  0  0  0  0  0
    4.1111    0.5332    0.0413 B   0  0  0  0  0  0  0  0  0  0  0  0
    4.0090    2.3280    0.0037 B   0  0  0  0  0  0  0  0  0  0  0  0
    2.7855    3.0696   -0.8656 B   0  0  0  0  0  0  0  0  0  0  0  0
    5.4151    1.4684   -0.1800 B   0  0  0  0  0  0  0  0  0  0  0  0
    4.2526    3.5374   -1.0087 B   0  0  0  0  0  0  0  0  0  0  0  0
   -5.2351   -3.1469    1.2745 H   0  0  0  0  0  0  0  0  0  0  0  0
   -5.7218   -2.0397   -0.3903 H   0  0  0  0  0  0  0  0  0  0  0  0
   -5.2238   -0.0193   -2.6473 H   0  0  0  0  0  0  0  0  0  0  0  0
   -5.7918    1.0249    1.7556 H   0  0  0  0  0  0  0  0  0  0  0  0
   -5.3439    3.8523    0.7335 H   0  0  0  0  0  0  0  0  0  0  0  0
   -3.2499    3.3012    3.0814 H   0  0  0  0  0  0  0  0  0  0  0  0
   -2.3641   -4.9130   -0.4271 H   0  0  0  0  0  0  0  0  0  0  0  0
   -0.9116    5.4486    0.2764 H   0  0  0  0  0  0  0  0  0  0  0  0
    0.8077   -5.2367   -0.9873 H   0  0  0  0  0  0  0  0  0  0  0  0
    0.5064    2.6289   -1.6796 H   0  0  0  0  0  0  0  0  0  0  0  0
    3.0398   -4.9116    1.6889 H   0  0  0  0  0  0  0  0  0  0  0  0
    5.3499   -2.6599    2.1668 H   0  0  0  0  0  0  0  0  0  0  0  0
    6.3762   -0.6517   -1.0565 H   0  0  0  0  0  0  0  0  0  0  0  0
    6.5000    1.8632    0.0222 H   0  0  0  0  0  0  0  0  0  0  0  0
    5.0765    4.2378   -1.4487 H   0  0  0  0  0  0  0  0  0  0  0  0
  1  2  1  0  0  0  0
  2  3  4  0  0  0  0
  3  4  4  0  0  0  0
  4  5  4  0  0  0  0
  5  6  1  0  0  0  0
  6  7  2  0  0  0  0
  7  8  1  0  0  0  0
  8  9  4  0  0  0  0
  9 10  4  0  0  0  0
 10 11  1  0  0  0  0
 10 12  4  0  0  0  0
 12 13  4  0  0  0  0
 13 14  1  0  0  0  0
  8 15  4  0  0  0  0
 13 15  4  0  0  0  0
  5 16  4  0  0  0  0
  2 17  4  0  0  0  0
 16 17  4  0  0  0  0
  1 18  1  0  0  0  0
  3 19  1  0  0  0  0
  4 20  1  0  0  0  0
  6 21  1  0  0  0  0
  7 22  1  0  0  0  0
  9 23  1  0  0  0  0
 11 24  1  0  0  0  0
 12 25  1  0  0  0  0
 14 26  1  0  0  0  0
 15 27  1  0  0  0  0
 16 28  1  0  0  0  0
 17 29  1  0  0  0  0
 30 31  1  0  0  0  0
 31 32  1  0  0  0  0
 30 33  1  0  0  0  0
 31 33  1  0  0  0  0
 32 34  1  0  0  0  0
 31 35  1  0  0  0  0
 32 35  1  0  0  0  0
 34 35  1  0  0  0  0
 35 36  1  0  0  0  0
 36 37  1  0  0  0  0
 34 38  1  0  0  0  0
 35 38  1  0  0  0  0
 37 39  1  0  0  0  0
 33 40  1  0  0  0  0
 33 41  1  0  0  0  0
 40 41  1  0  0  0  0
 34 42  1  0  0  0  0
 38 42  1  0  0  0  0
 41 42  1  0  0  0  0
 40 43  1  0  0  0  0
 41 43  1  0  0  0  0
 42 44  1  0  0  0  0
 38 45  1  0  0  0  0
 42 45  1  0  0  0  0
 44 45  1  0  0  0  0
 38 46  1  0  0  0  0
 45 46  1  0  0  0  0
 39 47  1  0  0  0  0
 46 47  1  0  0  0  0
 44 48  1  0  0  0  0
 45 48  1  0  0  0  0
 46 48  1  0  0  0  0
 47 49  1  0  0  0  0
 43 50  1  0  0  0  0
 43 51  1  0  0  0  0
 50 51  1  0  0  0  0
 44 52  1  0  0  0  0
 51 52  1  0  0  0  0
 50 53  1  0  0  0  0
 51 53  1  0  0  0  0
 52 54  1  0  0  0  0
 44 55  1  0  0  0  0
 48 55  1  0  0  0  0
 52 55  1  0  0  0  0
 54 55  1  0  0  0  0
 48 56  1  0  0  0  0
 55 56  1  0  0  0  0
 49 57  1  0  0  0  0
 56 57  1  0  0  0  0
 54 58  1  0  0  0  0
 55 58  1  0  0  0  0
 56 58  1  0  0  0  0
 57 59  1  0  0  0  0
 53 60  1  0  0  0  0
 53 61  1  0  0  0  0
 60 61  1  0  0  0  0
 54 62  1  0  0  0  0
 61 62  1  0  0  0  0
 60 63  1  0  0  0  0
 61 63  1  0  0  0  0
 62 64  1  0  0  0  0
 54 65  1  0  0  0  0
 62 65  1  0  0  0  0
 64 65  1  0  0  0  0
 58 66  1  0  0  0  0
 65 66  1  0  0  0  0
 58 67  1  0  0  0  0
 59 67  1  0  0  0  0
 66 67  1  0  0  0  0
 64 68  1  0  0  0  0
 65 68  1  0  0  0  0
 66 68  1  0  0  0  0
 66 69  1  0  0  0  0
 67 69  1  0  0  0  0
 30 70  1  0  0  0  0
 30 71  1  0  0  0  0
 31 71  1  0  0  0  0
 32 72  1  0  0  0  0
 36 73  1  0  0  0  0
 37 74  1  0  0  0  0
 39 75  1  0  0  0  0
 40 76  1  0  0  0  0
 49 77  1  0  0  0  0
 50 78  1  0  0  0  0
 59 79  1  0  0  0  0
 60 80  1  0  0  0  0
 63 81  1  0  0  0  0
 64 82  1  0  0  0  0
 68 83  1  0  0  0  0
 69 84  1  0  0  0  0
M  END
