 xtb: 6.7.1pre (5071a88)
          08312622083D

 89143  0     0  0            999 V2000
   -0.2628    6.1203    5.3571 O   0  0  0  0  0  0  0  0  0  0  0  0
   -0.2852    4.7587    5.4807 C   0  0  0  0  0  0  0  0  0  0  0  0
   -1.5057    4.1039    5.3359 C   0  0  0  0  0  0  0  0  0  0  0  0
   -1.5659    2.7330    5.4276 C   0  0  0  0  0  0  0  0  0  0  0  0
   -0.4157    1.9599    5.6653 C   0  0  0  0  0  0  0  0  0  0  0  0
   -0.5382    0.5296    5.7429 C   0  0  0  0  0  0  0  0  0  0  0  0
    0.4658   -0.3678    5.8810 C   0  0  0  0  0  0  0  0  0  0  0  0
    0.3093   -1.7862    6.0338 C   0  0  0  0  0  0  0  0  0  0  0  0
    1.4264   -2.5659    6.3821 C   0  0  0  0  0  0  0  0  0  0  0  0
    1.3026   -3.9218    6.6017 C   0  0  0  0  0  0  0  0  0  0  0  0
    2.3710   -4.6938    6.9685 O   0  0  0  0  0  0  0  0  0  0  0  0
    0.0702   -4.5517    6.4606 C   0  0  0  0  0  0  0  0  0  0  0  0
   -1.0332   -3.7991    6.0820 C   0  0  0  0  0  0  0  0  0  0  0  0
   -2.2597   -4.3756    5.9102 O   0  0  0  0  0  0  0  0  0  0  0  0
   -0.9227   -2.4386    5.8713 C   0  0  0  0  0  0  0  0  0  0  0  0
    0.7946    2.6449    5.8395 C   0  0  0  0  0  0  0  0  0  0  0  0
    0.8581    4.0217    5.7541 C   0  0  0  0  0  0  0  0  0  0  0  0
    0.6289    6.4459    5.5071 H   0  0  0  0  0  0  0  0  0  0  0  0
   -2.3869    4.6922    5.1448 H   0  0  0  0  0  0  0  0  0  0  0  0
   -2.5114    2.2301    5.3075 H   0  0  0  0  0  0  0  0  0  0  0  0
   -1.5496    0.1659    5.7380 H   0  0  0  0  0  0  0  0  0  0  0  0
    1.4833   -0.0162    5.8929 H   0  0  0  0  0  0  0  0  0  0  0  0
    2.3879   -2.0853    6.5072 H   0  0  0  0  0  0  0  0  0  0  0  0
    3.1492   -4.1314    7.0514 H   0  0  0  0  0  0  0  0  0  0  0  0
   -0.0069   -5.6105    6.6470 H   0  0  0  0  0  0  0  0  0  0  0  0
   -2.1922   -5.3202    6.0789 H   0  0  0  0  0  0  0  0  0  0  0  0
   -1.8024   -1.8956    5.5821 H   0  0  0  0  0  0  0  0  0  0  0  0
    1.6877    2.0949    6.0750 H   0  0  0  0  0  0  0  0  0  0  0  0
    1.7993    4.5304    5.9046 H   0  0  0  0  0  0  0  0  0  0  0  0
   -6.2415   -2.9045   -0.2994 B   0  0  0  0  0  0  0  0  0  0  0  0
   -3.8226   -3.4737    1.0486 B   0  0  0  0  0  0  0  0  0  0  0  0
   -1.0641   -4.1971    2.2886 B   0  0  0  0  0  0  0  0  0  0  0  0
    1.6769   -4.2396    1.6645 B   0  0  0  0  0  0  0  0  0  0  0  0
    2.9366   -3.6742    0.9037 B   0  0  0  0  0  0  0  0  0  0  0  0
    5.8116   -3.8127   -0.2811 B   0  0  0  0  0  0  0  0  0  0  0  0
   -4.6608   -2.3555   -0.2587 B   0  0  0  0  0  0  0  0  0  0  0  0
   -2.6083   -2.2342    1.1320 B   0  0  0  0  0  0  0  0  0  0  0  0
   -1.2713   -2.4282    2.1311 B   0  0  0  0  0  0  0  0  0  0  0  0
    0.2752   -3.1471    1.6477 B   0  0  0  0  0  0  0  0  0  0  0  0
    3.0798   -2.0970    0.3601 B   0  0  0  0  0  0  0  0  0  0  0  0
    5.1402   -2.5278   -0.9736 B   0  0  0  0  0  0  0  0  0  0  0  0
   -4.2386   -1.0592   -1.1540 B   0  0  0  0  0  0  0  0  0  0  0  0
   -3.1262   -1.2827    0.0274 B   0  0  0  0  0  0  0  0  0  0  0  0
   -0.8496   -0.9422    2.5048 B   0  0  0  0  0  0  0  0  0  0  0  0
    0.4240   -1.5075    1.3032 B   0  0  0  0  0  0  0  0  0  0  0  0
    4.1623   -1.2218   -0.3463 B   0  0  0  0  0  0  0  0  0  0  0  0
    6.7224   -2.4367   -0.7296 B   0  0  0  0  0  0  0  0  0  0  0  0
   -4.7685   -0.6412   -2.6899 B   0  0  0  0  0  0  0  0  0  0  0  0
   -3.0876    0.1523   -0.6439 B   0  0  0  0  0  0  0  0  0  0  0  0
   -1.0601    0.5983    2.5642 B   0  0  0  0  0  0  0  0  0  0  0  0
    0.0001   -0.0230    1.3476 B   0  0  0  0  0  0  0  0  0  0  0  0
    4.7853    0.2803   -0.3495 B   0  0  0  0  0  0  0  0  0  0  0  0
    5.7347   -1.0178   -0.9913 B   0  0  0  0  0  0  0  0  0  0  0  0
   -5.4928    0.8773   -2.8216 B   0  0  0  0  0  0  0  0  0  0  0  0
   -2.7515    1.6027   -0.3426 B   0  0  0  0  0  0  0  0  0  0  0  0
   -1.3198    2.1117    2.4280 B   0  0  0  0  0  0  0  0  0  0  0  0
    0.1735    1.5411    1.5432 B   0  0  0  0  0  0  0  0  0  0  0  0
    4.1907    1.6428    0.3202 B   0  0  0  0  0  0  0  0  0  0  0  0
    6.1180    0.4849   -1.5334 B   0  0  0  0  0  0  0  0  0  0  0  0
   -5.5474    1.7927   -1.4070 B   0  0  0  0  0  0  0  0  0  0  0  0
   -3.2566    2.9510    0.1348 B   0  0  0  0  0  0  0  0  0  0  0  0
   -1.7263    3.6046    2.1302 B   0  0  0  0  0  0  0  0  0  0  0  0
   -0.0763    3.1606    1.8113 B   0  0  0  0  0  0  0  0  0  0  0  0
    2.9322    2.2619    1.0569 B   0  0  0  0  0  0  0  0  0  0  0  0
    5.6213    1.7451   -0.6331 B   0  0  0  0  0  0  0  0  0  0  0  0
   -6.4686    2.8903   -0.8729 B   0  0  0  0  0  0  0  0  0  0  0  0
   -4.4284    3.9246    0.7384 B   0  0  0  0  0  0  0  0  0  0  0  0
   -1.7885    5.1848    1.6058 B   0  0  0  0  0  0  0  0  0  0  0  0
    1.1525    4.3924    1.7850 B   0  0  0  0  0  0  0  0  0  0  0  0
    2.5569    3.9138    1.2966 B   0  0  0  0  0  0  0  0  0  0  0  0
    5.2203    3.0592    0.0310 B   0  0  0  0  0  0  0  0  0  0  0  0
   -5.2426   -3.6919    0.4941 B   0  0  0  0  0  0  0  0  0  0  0  0
   -2.4890   -3.6750    1.8606 B   0  0  0  0  0  0  0  0  0  0  0  0
    0.3551   -4.7473    2.2140 B   0  0  0  0  0  0  0  0  0  0  0  0
    1.7069   -2.4082    1.1151 B   0  0  0  0  0  0  0  0  0  0  0  0
    4.2664   -3.4435    0.1382 B   0  0  0  0  0  0  0  0  0  0  0  0
   -4.9744    2.8796   -0.2578 B   0  0  0  0  0  0  0  0  0  0  0  0
   -3.0261    4.3358    1.2308 B   0  0  0  0  0  0  0  0  0  0  0  0
   -0.3105    4.8873    1.8790 B   0  0  0  0  0  0  0  0  0  0  0  0
    1.4483    2.5384    1.4776 B   0  0  0  0  0  0  0  0  0  0  0  0
    3.9976    3.6181    0.7600 B   0  0  0  0  0  0  0  0  0  0  0  0
   -4.4301    0.5846   -1.6468 B   0  0  0  0  0  0  0  0  0  0  0  0
   -7.2311   -2.5603   -0.8289 H   0  0  0  0  0  0  0  0  0  0  0  0
   -4.6972   -1.3747   -3.6093 H   0  0  0  0  0  0  0  0  0  0  0  0
   -5.9786    1.2727   -3.8171 H   0  0  0  0  0  0  0  0  0  0  0  0
   -7.4323    3.5369   -0.7323 H   0  0  0  0  0  0  0  0  0  0  0  0
    6.2525   -4.9028   -0.3171 H   0  0  0  0  0  0  0  0  0  0  0  0
    7.8856   -2.4123   -0.8878 H   0  0  0  0  0  0  0  0  0  0  0  0
    6.7444    0.6420   -2.5250 H   0  0  0  0  0  0  0  0  0  0  0  0
  1  2  1  0  0  0  0
  2  3  4  0  0  0  0
  3  4  4  0  0  0  0
  4  5  4  0  0  0  0
  5  6  1  0  0  0  0
  6  7  2  0  0  0  0
  7  8  1  0  0  0  0
  8  9  4  0  0  0  0
  9 10  4  0  0  0  0
 10 11  1  0  0  0  0
 10 12  4  0  0  0  0
 12 13  4  0  0  0  0
 13 14  1  0  0  0  0
  8 15  4  0  0  0  0
 13 15  4  0  0  0  0
  5 16  4  0  0  0  0
  2 17  4  0  0  0  0
 16 17  4  0  0  0  0
  1 18  1  0  0  0  0
  3 19  1  0  0  0  0
  4 20  1  0  0  0  0
  6 21  1  0  0  0  0
  7 22  1  0  0  0  0
  9 23  1  0  0  0  0
 11 24  1  0  0  0  0
 12 25  1  0  0  0  0
 14 26  1  0  0  0  0
 15 27  1  0  0  0  0
 16 28  1  0  0  0  0
 17 29  1  0  0  0  0
 33 34  1  0  0  0  0
 30 36  1  0  0  0  0
 31 36  1  0  0  0  0
 31 37  1  0  0  0  0
 32 38  1  0  0  0  0
 37 38  1  0  0  0  0
 32 39  1  0  0  0  0
 33 39  1  0  0  0  0
 38 39  1  0  0  0  0
 34 40  1  0  0  0  0
 35 41  1  0  0  0  0
 36 42  1  0  0  0  0
 36 43  1  0  0  0  0
 37 43  1  0  0  0  0
 42 43  1  0  0  0  0
 38 44  1  0  0  0  0
 39 45  1  0  0  0  0
 44 45  1  0  0  0  0
 40 46  1  0  0  0  0
 41 46  1  0  0  0  0
 35 47  1  0  0  0  0
 41 47  1  0  0  0  0
 42 48  1  0  0  0  0
 42 49  1  0  0  0  0
 43 49  1  0  0  0  0
 44 50  1  0  0  0  0
 44 51  1  0  0  0  0
 45 51  1  0  0  0  0
 50 51  1  0  0  0  0
 46 52  1  0  0  0  0
 41 53  1  0  0  0  0
 46 53  1  0  0  0  0
 47 53  1  0  0  0  0
 52 53  1  0  0  0  0
 48 54  1  0  0  0  0
 49 55  1  0  0  0  0
 50 56  1  0  0  0  0
 50 57  1  0  0  0  0
 51 57  1  0  0  0  0
 56 57  1  0  0  0  0
 52 58  1  0  0  0  0
 52 59  1  0  0  0  0
 53 59  1  0  0  0  0
 54 60  1  0  0  0  0
 55 61  2  0  0  0  0
 56 62  1  0  0  0  0
 56 63  1  0  0  0  0
 57 63  1  0  0  0  0
 62 63  1  0  0  0  0
 58 64  1  0  0  0  0
 52 65  1  0  0  0  0
 58 65  1  0  0  0  0
 59 65  1  0  0  0  0
 60 66  1  0  0  0  0
 61 67  1  0  0  0  0
 62 68  1  0  0  0  0
 63 69  1  0  0  0  0
 64 70  1  0  0  0  0
 69 70  1  0  0  0  0
 58 71  1  0  0  0  0
 65 71  1  0  0  0  0
 30 72  2  0  0  0  0
 31 72  1  0  0  0  0
 36 72  1  0  0  0  0
 31 73  1  0  0  0  0
 32 73  1  0  0  0  0
 37 73  1  0  0  0  0
 38 73  1  0  0  0  0
 32 74  1  0  0  0  0
 33 74  1  0  0  0  0
 39 74  1  0  0  0  0
 33 75  1  0  0  0  0
 34 75  1  0  0  0  0
 39 75  1  0  0  0  0
 40 75  1  0  0  0  0
 45 75  1  0  0  0  0
 34 76  1  0  0  0  0
 35 76  1  0  0  0  0
 40 76  1  0  0  0  0
 41 76  1  0  0  0  0
 60 77  1  0  0  0  0
 61 77  1  0  0  0  0
 66 77  1  0  0  0  0
 67 77  1  0  0  0  0
 61 78  1  0  0  0  0
 62 78  1  0  0  0  0
 67 78  1  0  0  0  0
 68 78  1  0  0  0  0
 62 79  1  0  0  0  0
 63 79  1  0  0  0  0
 68 79  1  0  0  0  0
 69 79  1  0  0  0  0
 57 80  1  0  0  0  0
 63 80  1  0  0  0  0
 64 80  1  0  0  0  0
 69 80  1  0  0  0  0
 70 80  1  0  0  0  0
 58 81  1  0  0  0  0
 64 81  1  0  0  0  0
 70 81  1  0  0  0  0
 71 81  1  0  0  0  0
 42 82  1  0  0  0  0
 48 82  1  0  0  0  0
 49 82  1  0  0  0  0
 54 82  1  0  0  0  0
 60 82  1  0  0  0  0
 30 83  1  0  0  0  0
 48 84  1  0  0  0  0
 54 85  1  0  0  0  0
 66 86  1  0  0  0  0
 35 87  1  0  0  0  0
 47 88  1  0  0  0  0
 59 89  1  0  0  0  0
M  END
