 xtb: 6.7.1pre (5071a88)
          09012620363D

 84117  0     0  0            999 V2000
   -0.0579    6.5937    5.6680 O   0  0  0  0  0  0  0  0  0  0  0  0
   -0.1828    5.2419    5.5022 C   0  0  0  0  0  0  0  0  0  0  0  0
   -1.4480    4.7114    5.2811 C   0  0  0  0  0  0  0  0  0  0  0  0
   -1.6013    3.3521    5.1042 C   0  0  0  0  0  0  0  0  0  0  0  0
   -0.5129    2.4790    5.1304 C   0  0  0  0  0  0  0  0  0  0  0  0
   -0.7526    1.0350    4.8163 C   0  0  0  0  0  0  0  0  0  0  0  0
    0.1748    0.0462    5.3595 C   0  0  0  0  0  0  0  0  0  0  0  0
   -0.0641   -1.3206    5.3461 C   0  0  0  0  0  0  0  0  0  0  0  0
    0.9211   -2.2240    5.8419 C   0  0  0  0  0  0  0  0  0  0  0  0
    0.7272   -3.5797    5.8174 C   0  0  0  0  0  0  0  0  0  0  0  0
    1.6598   -4.4561    6.3369 O   0  0  0  0  0  0  0  0  0  0  0  0
   -0.4301   -4.1315    5.2511 C   0  0  0  0  0  0  0  0  0  0  0  0
   -1.4015   -3.2720    4.7573 C   0  0  0  0  0  0  0  0  0  0  0  0
   -2.5459   -3.7646    4.1813 O   0  0  0  0  0  0  0  0  0  0  0  0
   -1.2580   -1.9009    4.8286 C   0  0  0  0  0  0  0  0  0  0  0  0
    0.7468    3.0277    5.3455 C   0  0  0  0  0  0  0  0  0  0  0  0
    0.9130    4.3884    5.5406 C   0  0  0  0  0  0  0  0  0  0  0  0
    0.8717    6.8117    5.7996 H   0  0  0  0  0  0  0  0  0  0  0  0
   -2.2916    5.3841    5.2455 H   0  0  0  0  0  0  0  0  0  0  0  0
   -2.5934    2.9625    4.9299 H   0  0  0  0  0  0  0  0  0  0  0  0
   -1.7713    0.7875    5.1347 H   0  0  0  0  0  0  0  0  0  0  0  0
    1.1503    0.3708    5.6945 H   0  0  0  0  0  0  0  0  0  0  0  0
    1.8340   -1.8212    6.2689 H   0  0  0  0  0  0  0  0  0  0  0  0
    2.3868   -3.9522    6.7227 H   0  0  0  0  0  0  0  0  0  0  0  0
   -0.5510   -5.2030    5.2373 H   0  0  0  0  0  0  0  0  0  0  0  0
   -2.5477   -4.7239    4.2649 H   0  0  0  0  0  0  0  0  0  0  0  0
   -2.0895   -1.2968    4.5149 H   0  0  0  0  0  0  0  0  0  0  0  0
    1.6189    2.3926    5.3718 H   0  0  0  0  0  0  0  0  0  0  0  0
    1.9025    4.7926    5.7156 H   0  0  0  0  0  0  0  0  0  0  0  0
   -4.0927   -2.3242   -0.0164 B   0  0  0  0  0  0  0  0  0  0  0  0
   -3.9311   -1.1006   -1.1535 B   0  0  0  0  0  0  0  0  0  0  0  0
   -2.8641    0.1657   -1.5831 B   0  0  0  0  0  0  0  0  0  0  0  0
   -2.6665   -2.9720    0.1649 B   0  0  0  0  0  0  0  0  0  0  0  0
   -2.0805   -0.0831   -0.3088 B   0  0  0  0  0  0  0  0  0  0  0  0
   -3.9185    0.0645    0.0544 B   0  0  0  0  0  0  0  0  0  0  0  0
   -5.1368    1.0036    0.5280 B   0  0  0  0  0  0  0  0  0  0  0  0
   -4.8107    2.5863    0.5880 B   0  0  0  0  0  0  0  0  0  0  0  0
   -2.7540    0.1411    1.2125 B   0  0  0  0  0  0  0  0  0  0  0  0
   -4.0162    3.2019    1.8577 B   0  0  0  0  0  0  0  0  0  0  0  0
   -1.4569   -4.0838    0.0429 B   0  0  0  0  0  0  0  0  0  0  0  0
   -1.1703   -2.5887    0.5806 B   0  0  0  0  0  0  0  0  0  0  0  0
   -1.2931   -0.9759    0.8270 B   0  0  0  0  0  0  0  0  0  0  0  0
    0.0718   -3.6042    0.6036 B   0  0  0  0  0  0  0  0  0  0  0  0
   -0.2019   -0.6834    2.0580 B   0  0  0  0  0  0  0  0  0  0  0  0
   -1.7026   -0.2651    2.3972 B   0  0  0  0  0  0  0  0  0  0  0  0
   -2.1909    1.3313    2.2050 B   0  0  0  0  0  0  0  0  0  0  0  0
   -2.4730    2.8108    1.7501 B   0  0  0  0  0  0  0  0  0  0  0  0
   -0.8120    0.9613    3.1102 B   0  0  0  0  0  0  0  0  0  0  0  0
   -1.2746    3.8838    1.2813 B   0  0  0  0  0  0  0  0  0  0  0  0
    1.5713   -4.2662    0.6591 B   0  0  0  0  0  0  0  0  0  0  0  0
    1.2798   -2.9228    1.4806 B   0  0  0  0  0  0  0  0  0  0  0  0
    1.3196   -1.4439    2.0865 B   0  0  0  0  0  0  0  0  0  0  0  0
    2.8098   -3.6591    1.5961 B   0  0  0  0  0  0  0  0  0  0  0  0
    2.6609   -0.5050    2.0409 B   0  0  0  0  0  0  0  0  0  0  0  0
    1.2257    0.1764    2.1841 B   0  0  0  0  0  0  0  0  0  0  0  0
    0.5155    1.7219    2.3676 B   0  0  0  0  0  0  0  0  0  0  0  0
   -0.0982    2.8922    1.4412 B   0  0  0  0  0  0  0  0  0  0  0  0
    1.9968    1.5109    1.6876 B   0  0  0  0  0  0  0  0  0  0  0  0
    0.6933    2.0738    0.2591 B   0  0  0  0  0  0  0  0  0  0  0  0
    3.9973   -4.1923    2.6143 B   0  0  0  0  0  0  0  0  0  0  0  0
    4.1490   -2.7562    1.8146 B   0  0  0  0  0  0  0  0  0  0  0  0
    4.1432   -1.1694    1.5873 B   0  0  0  0  0  0  0  0  0  0  0  0
    5.1712   -3.1536    2.9559 B   0  0  0  0  0  0  0  0  0  0  0  0
    5.2796   -0.0822    0.9624 B   0  0  0  0  0  0  0  0  0  0  0  0
    4.0094    0.4497    1.8245 B   0  0  0  0  0  0  0  0  0  0  0  0
    3.5102    2.0941    1.2945 B   0  0  0  0  0  0  0  0  0  0  0  0
    2.2831    2.3337    0.1714 B   0  0  0  0  0  0  0  0  0  0  0  0
    5.0884    1.5887    1.3697 B   0  0  0  0  0  0  0  0  0  0  0  0
    3.7286    2.7684   -0.1584 B   0  0  0  0  0  0  0  0  0  0  0  0
   -5.1521   -2.6845    0.3511 H   0  0  0  0  0  0  0  0  0  0  0  0
   -4.5002   -1.4389   -2.1312 H   0  0  0  0  0  0  0  0  0  0  0  0
   -2.9706    0.7695   -2.5803 H   0  0  0  0  0  0  0  0  0  0  0  0
   -6.1747    0.5499    0.8642 H   0  0  0  0  0  0  0  0  0  0  0  0
   -5.1522    3.2960   -0.2872 H   0  0  0  0  0  0  0  0  0  0  0  0
   -4.5453    3.7847    2.7314 H   0  0  0  0  0  0  0  0  0  0  0  0
   -1.6813   -5.2050   -0.1894 H   0  0  0  0  0  0  0  0  0  0  0  0
   -1.4360    4.9750    0.8853 H   0  0  0  0  0  0  0  0  0  0  0  0
    1.8983   -5.2011    0.0355 H   0  0  0  0  0  0  0  0  0  0  0  0
    0.1610    1.3552   -0.5076 H   0  0  0  0  0  0  0  0  0  0  0  0
    3.9590   -5.2822    3.0302 H   0  0  0  0  0  0  0  0  0  0  0  0
    6.0982   -2.8926    3.6067 H   0  0  0  0  0  0  0  0  0  0  0  0
    6.2510   -0.4322    0.4171 H   0  0  0  0  0  0  0  0  0  0  0  0
    6.0148    2.2486    1.6609 H   0  0  0  0  0  0  0  0  0  0  0  0
    4.5004    3.2532   -0.8854 H   0  0  0  0  0  0  0  0  0  0  0  0
  1  2  1  0  0  0  0
  2  3  4  0  0  0  0
  3  4  4  0  0  0  0
  4  5  4  0  0  0  0
  5  6  1  0  0  0  0
  6  7  1  0  0  0  0
  7  8  4  0  0  0  0
  8  9  4  0  0  0  0
  9 10  4  0  0  0  0
 10 11  1  0  0  0  0
 10 12  4  0  0  0  0
 12 13  4  0  0  0  0
 13 14  1  0  0  0  0
  8 15  4  0  0  0  0
 13 15  4  0  0  0  0
  5 16  4  0  0  0  0
  2 17  4  0  0  0  0
 16 17  4  0  0  0  0
  1 18  1  0  0  0  0
  3 19  1  0  0  0  0
  4 20  1  0  0  0  0
  6 21  1  0  0  0  0
  7 22  1  0  0  0  0
  9 23  1  0  0  0  0
 11 24  1  0  0  0  0
 12 25  1  0  0  0  0
 14 26  1  0  0  0  0
 15 27  1  0  0  0  0
 16 28  1  0  0  0  0
 17 29  1  0  0  0  0
 30 31  1  0  0  0  0
 31 32  1  0  0  0  0
 30 33  1  0  0  0  0
 32 34  1  0  0  0  0
 31 35  1  0  0  0  0
 32 35  1  0  0  0  0
 34 35  1  0  0  0  0
 35 36  1  0  0  0  0
 36 37  1  0  0  0  0
 34 38  1  0  0  0  0
 35 38  1  0  0  0  0
 37 39  1  0  0  0  0
 33 40  1  0  0  0  0
 33 41  1  0  0  0  0
 40 41  1  0  0  0  0
 34 42  1  0  0  0  0
 38 42  1  0  0  0  0
 41 42  1  0  0  0  0
 40 43  1  0  0  0  0
 41 43  1  0  0  0  0
 42 44  1  0  0  0  0
 38 45  1  0  0  0  0
 42 45  1  0  0  0  0
 44 45  1  0  0  0  0
 38 46  1  0  0  0  0
 45 46  1  0  0  0  0
 39 47  1  0  0  0  0
 46 47  1  0  0  0  0
  6 48  1  0  0  0  0
 44 48  1  0  0  0  0
 45 48  1  0  0  0  0
 46 48  1  0  0  0  0
 47 49  1  0  0  0  0
 43 50  1  0  0  0  0
 43 51  1  0  0  0  0
 50 51  1  0  0  0  0
 44 52  1  0  0  0  0
 51 52  1  0  0  0  0
 50 53  1  0  0  0  0
 51 53  1  0  0  0  0
 52 54  1  0  0  0  0
 44 55  1  0  0  0  0
 52 55  1  0  0  0  0
 54 55  1  0  0  0  0
 48 56  1  0  0  0  0
 55 56  1  0  0  0  0
 49 57  1  0  0  0  0
 56 57  1  0  0  0  0
 55 58  1  0  0  0  0
 56 58  1  0  0  0  0
 57 59  1  0  0  0  0
 53 60  1  0  0  0  0
 53 61  1  0  0  0  0
 60 61  1  0  0  0  0
 54 62  1  0  0  0  0
 61 62  1  0  0  0  0
 60 63  1  0  0  0  0
 61 63  1  0  0  0  0
 62 64  1  0  0  0  0
 54 65  1  0  0  0  0
 62 65  1  0  0  0  0
 64 65  1  0  0  0  0
 58 66  1  0  0  0  0
 65 66  1  0  0  0  0
 58 67  1  0  0  0  0
 59 67  1  0  0  0  0
 66 67  1  0  0  0  0
 64 68  1  0  0  0  0
 65 68  1  0  0  0  0
 66 68  1  0  0  0  0
 66 69  1  0  0  0  0
 67 69  1  0  0  0  0
 30 70  1  0  0  0  0
 31 71  1  0  0  0  0
 32 72  1  0  0  0  0
 36 73  1  0  0  0  0
 37 74  1  0  0  0  0
 39 75  1  0  0  0  0
 40 76  1  0  0  0  0
 49 77  1  0  0  0  0
 50 78  1  0  0  0  0
 59 79  1  0  0  0  0
 60 80  1  0  0  0  0
 63 81  1  0  0  0  0
 64 82  1  0  0  0  0
 68 83  1  0  0  0  0
 69 84  1  0  0  0  0
M  END
