 xtb: 6.7.1pre (5071a88)
          09012616363D

 89130  0     0  0            999 V2000
   -0.2894    6.1465    5.3552 O   0  0  0  0  0  0  0  0  0  0  0  0
   -0.3044    4.7853    5.4302 C   0  0  0  0  0  0  0  0  0  0  0  0
   -1.5160    4.1244    5.2391 C   0  0  0  0  0  0  0  0  0  0  0  0
   -1.5662    2.7522    5.3046 C   0  0  0  0  0  0  0  0  0  0  0  0
   -0.4203    1.9797    5.5575 C   0  0  0  0  0  0  0  0  0  0  0  0
   -0.5473    0.5478    5.6257 C   0  0  0  0  0  0  0  0  0  0  0  0
    0.4573   -0.3489    5.7539 C   0  0  0  0  0  0  0  0  0  0  0  0
    0.3146   -1.7778    5.8584 C   0  0  0  0  0  0  0  0  0  0  0  0
    1.4558   -2.5506    6.1244 C   0  0  0  0  0  0  0  0  0  0  0  0
    1.3713   -3.9227    6.2641 C   0  0  0  0  0  0  0  0  0  0  0  0
    2.4669   -4.6907    6.5324 O   0  0  0  0  0  0  0  0  0  0  0  0
    0.1452   -4.5668    6.1298 C   0  0  0  0  0  0  0  0  0  0  0  0
   -0.9882   -3.8150    5.8501 C   0  0  0  0  0  0  0  0  0  0  0  0
   -2.2087   -4.4028    5.6971 O   0  0  0  0  0  0  0  0  0  0  0  0
   -0.9097   -2.4392    5.7170 C   0  0  0  0  0  0  0  0  0  0  0  0
    0.7848    2.6667    5.7539 C   0  0  0  0  0  0  0  0  0  0  0  0
    0.8411    4.0428    5.6931 C   0  0  0  0  0  0  0  0  0  0  0  0
    0.6020    6.4726    5.5230 H   0  0  0  0  0  0  0  0  0  0  0  0
   -2.4006    4.7113    5.0498 H   0  0  0  0  0  0  0  0  0  0  0  0
   -2.5114    2.2494    5.1610 H   0  0  0  0  0  0  0  0  0  0  0  0
   -1.5571    0.1857    5.5722 H   0  0  0  0  0  0  0  0  0  0  0  0
    1.4815    0.0082    5.7972 H   0  0  0  0  0  0  0  0  0  0  0  0
    2.4132   -2.0594    6.2388 H   0  0  0  0  0  0  0  0  0  0  0  0
    3.2389   -4.1217    6.6280 H   0  0  0  0  0  0  0  0  0  0  0  0
    0.0957   -5.6385    6.2454 H   0  0  0  0  0  0  0  0  0  0  0  0
   -2.1238   -5.3564    5.8117 H   0  0  0  0  0  0  0  0  0  0  0  0
   -1.8164   -1.9006    5.5068 H   0  0  0  0  0  0  0  0  0  0  0  0
    1.6854    2.1189    5.9739 H   0  0  0  0  0  0  0  0  0  0  0  0
    1.7799    4.5555    5.8575 H   0  0  0  0  0  0  0  0  0  0  0  0
   -6.8857   -4.6608    0.5170 B   0  0  0  0  0  0  0  0  0  0  0  0
   -5.1092   -2.2262    0.4585 B   0  0  0  0  0  0  0  0  0  0  0  0
   -3.5883   -2.1780    0.3385 B   0  0  0  0  0  0  0  0  0  0  0  0
    0.9979   -2.8620    0.2962 B   0  0  0  0  0  0  0  0  0  0  0  0
    2.4688   -3.0130   -0.0663 B   0  0  0  0  0  0  0  0  0  0  0  0
    5.2563   -3.8029   -0.6601 B   0  0  0  0  0  0  0  0  0  0  0  0
    6.2054   -4.7685   -1.3337 B   0  0  0  0  0  0  0  0  0  0  0  0
   -6.4200   -3.1595    0.4380 B   0  0  0  0  0  0  0  0  0  0  0  0
   -6.7565   -1.6403    0.3923 B   0  0  0  0  0  0  0  0  0  0  0  0
   -2.0583   -2.3150    0.4881 B   0  0  0  0  0  0  0  0  0  0  0  0
   -0.4907   -2.4584    0.4571 B   0  0  0  0  0  0  0  0  0  0  0  0
    4.0070   -2.8793   -0.1455 B   0  0  0  0  0  0  0  0  0  0  0  0
    5.7380   -2.2865   -0.2097 B   0  0  0  0  0  0  0  0  0  0  0  0
    6.7824   -3.2015   -1.0799 B   0  0  0  0  0  0  0  0  0  0  0  0
   -7.6446   -0.2607    0.4268 B   0  0  0  0  0  0  0  0  0  0  0  0
   -6.0307   -0.1502    0.2323 B   0  0  0  0  0  0  0  0  0  0  0  0
   -4.4255   -0.5455    0.2957 B   0  0  0  0  0  0  0  0  0  0  0  0
   -2.7281   -0.6565    0.3944 B   0  0  0  0  0  0  0  0  0  0  0  0
   -1.0493   -0.8965    0.7643 B   0  0  0  0  0  0  0  0  0  0  0  0
    0.5168   -1.1679    0.8927 B   0  0  0  0  0  0  0  0  0  0  0  0
    3.1039   -1.4632    0.0467 B   0  0  0  0  0  0  0  0  0  0  0  0
    4.6887   -1.1521    0.4663 B   0  0  0  0  0  0  0  0  0  0  0  0
    6.2554   -0.7938    0.3389 B   0  0  0  0  0  0  0  0  0  0  0  0
    7.6998   -0.3648    1.0444 B   0  0  0  0  0  0  0  0  0  0  0  0
   -6.9001    1.2018    0.2061 B   0  0  0  0  0  0  0  0  0  0  0  0
   -3.4082    0.7802    0.1415 B   0  0  0  0  0  0  0  0  0  0  0  0
   -1.6541    0.5513    0.2311 B   0  0  0  0  0  0  0  0  0  0  0  0
    1.8502   -0.3821    0.4573 B   0  0  0  0  0  0  0  0  0  0  0  0
    3.5876   -0.1490    0.9140 B   0  0  0  0  0  0  0  0  0  0  0  0
    6.9646    0.6017   -0.0567 B   0  0  0  0  0  0  0  0  0  0  0  0
    8.3383    1.0327    0.5841 B   0  0  0  0  0  0  0  0  0  0  0  0
   -7.5681    2.7987    0.4026 B   0  0  0  0  0  0  0  0  0  0  0  0
   -6.1573    2.5024   -0.2735 B   0  0  0  0  0  0  0  0  0  0  0  0
   -3.5857    2.3192   -0.2064 B   0  0  0  0  0  0  0  0  0  0  0  0
   -0.8943    1.8420   -0.2915 B   0  0  0  0  0  0  0  0  0  0  0  0
    1.6184    1.0482   -0.2526 B   0  0  0  0  0  0  0  0  0  0  0  0
    3.0079    1.3110    0.6928 B   0  0  0  0  0  0  0  0  0  0  0  0
    6.3360    1.8653   -0.8325 B   0  0  0  0  0  0  0  0  0  0  0  0
   -6.5192    4.0356   -0.1433 B   0  0  0  0  0  0  0  0  0  0  0  0
   -4.8831    3.4590   -0.4224 B   0  0  0  0  0  0  0  0  0  0  0  0
   -3.4247    3.8703   -0.5802 B   0  0  0  0  0  0  0  0  0  0  0  0
   -2.0201    3.2374   -0.5882 B   0  0  0  0  0  0  0  0  0  0  0  0
   -0.4886    3.3167   -0.7372 B   0  0  0  0  0  0  0  0  0  0  0  0
    0.7193    2.3735   -0.5775 B   0  0  0  0  0  0  0  0  0  0  0  0
    2.3384    2.5068   -0.2890 B   0  0  0  0  0  0  0  0  0  0  0  0
    3.8218    2.6258    0.0820 B   0  0  0  0  0  0  0  0  0  0  0  0
    5.3747    2.8653   -0.0085 B   0  0  0  0  0  0  0  0  0  0  0  0
    6.0814    4.0607    0.7828 B   0  0  0  0  0  0  0  0  0  0  0  0
    6.2029    5.1476    0.3360 H   0  0  0  0  0  0  0  0  0  0  0  0
    8.2838   -1.1267    1.7158 H   0  0  0  0  0  0  0  0  0  0  0  0
    6.5369    1.9987   -1.9919 H   0  0  0  0  0  0  0  0  0  0  0  0
   -6.9699   -5.3628   -0.4345 H   0  0  0  0  0  0  0  0  0  0  0  0
   -6.7762    5.1731   -0.2534 H   0  0  0  0  0  0  0  0  0  0  0  0
    9.2201    1.7911    0.6736 H   0  0  0  0  0  0  0  0  0  0  0  0
   -8.8158   -0.3413    0.4624 H   0  0  0  0  0  0  0  0  0  0  0  0
    6.6256   -5.7627   -1.7748 H   0  0  0  0  0  0  0  0  0  0  0  0
   -8.6242    2.9920    0.8693 H   0  0  0  0  0  0  0  0  0  0  0  0
    7.8589   -2.8666   -1.4168 H   0  0  0  0  0  0  0  0  0  0  0  0
    6.4981    3.9360    1.8805 H   0  0  0  0  0  0  0  0  0  0  0  0
   -7.2543   -5.1866    1.5135 H   0  0  0  0  0  0  0  0  0  0  0  0
  1  2  1  0  0  0  0
  2  3  4  0  0  0  0
  3  4  4  0  0  0  0
  4  5  4  0  0  0  0
  5  6  1  0  0  0  0
  6  7  2  0  0  0  0
  7  8  1  0  0  0  0
  8  9  4  0  0  0  0
  9 10  4  0  0  0  0
 10 11  1  0  0  0  0
 10 12  4  0  0  0  0
 12 13  4  0  0  0  0
 13 14  1  0  0  0  0
  8 15  4  0  0  0  0
 13 15  4  0  0  0  0
  5 16  4  0  0  0  0
  2 17  4  0  0  0  0
 16 17  4  0  0  0  0
  1 18  1  0  0  0  0
  3 19  1  0  0  0  0
  4 20  1  0  0  0  0
  6 21  1  0  0  0  0
  7 22  1  0  0  0  0
  9 23  1  0  0  0  0
 11 24  1  0  0  0  0
 12 25  1  0  0  0  0
 14 26  1  0  0  0  0
 15 27  1  0  0  0  0
 16 28  1  0  0  0  0
 17 29  1  0  0  0  0
 31 32  1  0  0  0  0
 33 34  2  0  0  0  0
 35 36  2  0  0  0  0
 30 37  1  0  0  0  0
 31 37  1  0  0  0  0
 31 38  1  0  0  0  0
 37 38  1  0  0  0  0
 32 39  1  0  0  0  0
 33 40  1  0  0  0  0
 39 40  1  0  0  0  0
 34 41  1  0  0  0  0
 35 41  1  0  0  0  0
 35 42  1  0  0  0  0
 41 42  1  0  0  0  0
 35 43  1  0  0  0  0
 36 43  1  0  0  0  0
 42 43  1  0  0  0  0
 38 44  1  0  0  0  0
 38 45  1  0  0  0  0
 44 45  1  0  0  0  0
 31 46  1  0  0  0  0
 32 46  1  0  0  0  0
 45 46  1  0  0  0  0
 32 47  1  0  0  0  0
 39 47  1  0  0  0  0
 46 47  1  0  0  0  0
 39 48  1  0  0  0  0
 40 48  1  0  0  0  0
 47 48  1  0  0  0  0
 33 49  1  0  0  0  0
 40 49  1  0  0  0  0
 48 49  1  0  0  0  0
 34 50  1  0  0  0  0
 41 50  1  0  0  0  0
 41 51  1  0  0  0  0
 42 51  1  0  0  0  0
 50 51  1  0  0  0  0
 42 52  1  0  0  0  0
 51 52  1  0  0  0  0
 52 53  1  0  0  0  0
 44 54  1  0  0  0  0
 45 54  1  0  0  0  0
 46 55  1  0  0  0  0
 47 55  1  0  0  0  0
 47 56  1  0  0  0  0
 48 56  1  0  0  0  0
 55 56  1  0  0  0  0
 49 57  1  0  0  0  0
 50 57  1  0  0  0  0
 50 58  1  0  0  0  0
 51 58  1  0  0  0  0
 57 58  1  0  0  0  0
 52 59  1  0  0  0  0
 53 59  1  0  0  0  0
 53 60  1  0  0  0  0
 59 60  1  0  0  0  0
 54 61  1  0  0  0  0
 54 62  1  0  0  0  0
 61 62  1  0  0  0  0
 55 63  1  0  0  0  0
 56 64  1  0  0  0  0
 57 65  1  0  0  0  0
 58 66  1  0  0  0  0
 65 66  1  0  0  0  0
 59 67  1  0  0  0  0
 61 68  1  0  0  0  0
 62 68  1  0  0  0  0
 62 69  1  0  0  0  0
 63 69  1  0  0  0  0
 68 69  1  0  0  0  0
 63 70  1  0  0  0  0
 69 70  1  0  0  0  0
 63 71  1  0  0  0  0
 64 71  1  0  0  0  0
 70 71  1  0  0  0  0
 64 72  1  0  0  0  0
 71 72  1  0  0  0  0
 64 73  1  0  0  0  0
 65 73  1  0  0  0  0
 72 73  1  0  0  0  0
 65 74  1  0  0  0  0
 66 74  1  0  0  0  0
 73 74  1  0  0  0  0
 66 75  1  0  0  0  0
 74 75  1  0  0  0  0
 67 76  1  0  0  0  0
 75 76  1  0  0  0  0
 76 77  1  0  0  0  0
 77 78  1  0  0  0  0
 53 79  1  0  0  0  0
 67 80  1  0  0  0  0
 30 81  1  0  0  0  0
 68 82  1  0  0  0  0
 60 83  1  0  0  0  0
 44 84  1  0  0  0  0
 36 85  1  0  0  0  0
 61 86  1  0  0  0  0
 43 87  1  0  0  0  0
 77 88  1  0  0  0  0
 30 89  1  0  0  0  0
M  END
