 xtb: 6.7.1pre (5071a88)
          08312620213D

 89119  0     0  0            999 V2000
   -6.1485   -0.3002    3.1713 O   0  0  0  0  0  0  0  0  0  0  0  0
   -4.7854   -0.2937    3.1687 C   0  0  0  0  0  0  0  0  0  0  0  0
   -4.1319   -1.5184    3.1268 C   0  0  0  0  0  0  0  0  0  0  0  0
   -2.7356   -1.5581    3.1213 C   0  0  0  0  0  0  0  0  0  0  0  0
   -1.9889   -0.3732    3.1697 C   0  0  0  0  0  0  0  0  0  0  0  0
   -0.5222   -0.4578    3.1323 C   0  0  0  0  0  0  0  0  0  0  0  0
    0.2909    0.3420    3.8415 C   0  0  0  0  0  0  0  0  0  0  0  0
    1.7580    0.2508    3.8049 C   0  0  0  0  0  0  0  0  0  0  0  0
    2.5117    1.4322    3.8590 C   0  0  0  0  0  0  0  0  0  0  0  0
    3.9049    1.3700    3.8514 C   0  0  0  0  0  0  0  0  0  0  0  0
    4.6659    2.5023    3.8927 O   0  0  0  0  0  0  0  0  0  0  0  0
    4.5690    0.1504    3.8027 C   0  0  0  0  0  0  0  0  0  0  0  0
    3.8205   -1.0195    3.7658 C   0  0  0  0  0  0  0  0  0  0  0  0
    4.4205   -2.2444    3.7272 O   0  0  0  0  0  0  0  0  0  0  0  0
    2.4281   -0.9797    3.7715 C   0  0  0  0  0  0  0  0  0  0  0  0
   -2.6678    0.8536    3.1964 C   0  0  0  0  0  0  0  0  0  0  0  0
   -4.0656    0.8955    3.2011 C   0  0  0  0  0  0  0  0  0  0  0  0
   -6.4628    0.6179    3.2030 H   0  0  0  0  0  0  0  0  0  0  0  0
   -4.7052   -2.4405    3.0972 H   0  0  0  0  0  0  0  0  0  0  0  0
   -2.2371   -2.5242    3.0881 H   0  0  0  0  0  0  0  0  0  0  0  0
   -0.1172   -1.2348    2.4878 H   0  0  0  0  0  0  0  0  0  0  0  0
   -0.1146    1.1149    4.4896 H   0  0  0  0  0  0  0  0  0  0  0  0
    2.0058    2.3924    3.8975 H   0  0  0  0  0  0  0  0  0  0  0  0
    4.0763    3.2741    3.9143 H   0  0  0  0  0  0  0  0  0  0  0  0
    5.6534    0.1331    3.7987 H   0  0  0  0  0  0  0  0  0  0  0  0
    5.3836   -2.1158    3.7332 H   0  0  0  0  0  0  0  0  0  0  0  0
    1.8770   -1.9163    3.7611 H   0  0  0  0  0  0  0  0  0  0  0  0
   -2.1155    1.7899    3.2013 H   0  0  0  0  0  0  0  0  0  0  0  0
   -4.5672    1.8575    3.2238 H   0  0  0  0  0  0  0  0  0  0  0  0
   -7.5000   -4.5000    0.0000 B   0  0  0  0  0  0  0  0  0  0  0  0
   -4.5000   -4.5000    0.0000 B   0  0  0  0  0  0  0  0  0  0  0  0
   -1.5000   -4.5000    0.0000 B   0  0  0  0  0  0  0  0  0  0  0  0
    1.5000   -4.5000    0.0000 B   0  0  0  0  0  0  0  0  0  0  0  0
    4.5000   -4.5000    0.0000 B   0  0  0  0  0  0  0  0  0  0  0  0
    7.5000   -4.5000    0.0000 B   0  0  0  0  0  0  0  0  0  0  0  0
   -7.5000   -3.0000    0.0000 B   0  0  0  0  0  0  0  0  0  0  0  0
   -4.5000   -3.0000    0.0000 B   0  0  0  0  0  0  0  0  0  0  0  0
   -1.5000   -3.0000    0.0000 B   0  0  0  0  0  0  0  0  0  0  0  0
    1.5000   -3.0000    0.0000 B   0  0  0  0  0  0  0  0  0  0  0  0
    4.5000   -3.0000    0.0000 B   0  0  0  0  0  0  0  0  0  0  0  0
    7.5000   -3.0000    0.0000 B   0  0  0  0  0  0  0  0  0  0  0  0
   -7.5000   -1.5000    0.0000 B   0  0  0  0  0  0  0  0  0  0  0  0
   -4.5000   -1.5000    0.0000 B   0  0  0  0  0  0  0  0  0  0  0  0
   -1.5000   -1.5000    0.0000 B   0  0  0  0  0  0  0  0  0  0  0  0
    1.5000   -1.5000    0.0000 B   0  0  0  0  0  0  0  0  0  0  0  0
    4.5000   -1.5000    0.0000 B   0  0  0  0  0  0  0  0  0  0  0  0
    7.5000   -1.5000    0.0000 B   0  0  0  0  0  0  0  0  0  0  0  0
   -7.5000    0.0000    0.0000 B   0  0  0  0  0  0  0  0  0  0  0  0
   -4.5000    0.0000    0.0000 B   0  0  0  0  0  0  0  0  0  0  0  0
   -1.5000    0.0000    0.0000 B   0  0  0  0  0  0  0  0  0  0  0  0
    1.5000    0.0000    0.0000 B   0  0  0  0  0  0  0  0  0  0  0  0
    4.5000    0.0000    0.0000 B   0  0  0  0  0  0  0  0  0  0  0  0
    7.5000    0.0000    0.0000 B   0  0  0  0  0  0  0  0  0  0  0  0
   -7.5000    1.5000    0.0000 B   0  0  0  0  0  0  0  0  0  0  0  0
   -4.5000    1.5000    0.0000 B   0  0  0  0  0  0  0  0  0  0  0  0
   -1.5000    1.5000    0.0000 B   0  0  0  0  0  0  0  0  0  0  0  0
    1.5000    1.5000    0.0000 B   0  0  0  0  0  0  0  0  0  0  0  0
    4.5000    1.5000    0.0000 B   0  0  0  0  0  0  0  0  0  0  0  0
    7.5000    1.5000    0.0000 B   0  0  0  0  0  0  0  0  0  0  0  0
   -7.5000    3.0000    0.0000 B   0  0  0  0  0  0  0  0  0  0  0  0
   -4.5000    3.0000    0.0000 B   0  0  0  0  0  0  0  0  0  0  0  0
   -1.5000    3.0000    0.0000 B   0  0  0  0  0  0  0  0  0  0  0  0
    1.5000    3.0000    0.0000 B   0  0  0  0  0  0  0  0  0  0  0  0
    4.5000    3.0000    0.0000 B   0  0  0  0  0  0  0  0  0  0  0  0
    7.5000    3.0000    0.0000 B   0  0  0  0  0  0  0  0  0  0  0  0
   -7.5000    4.5000    0.0000 B   0  0  0  0  0  0  0  0  0  0  0  0
   -4.5000    4.5000    0.0000 B   0  0  0  0  0  0  0  0  0  0  0  0
   -1.5000    4.5000    0.0000 B   0  0  0  0  0  0  0  0  0  0  0  0
    1.5000    4.5000    0.0000 B   0  0  0  0  0  0  0  0  0  0  0  0
    4.5000    4.5000    0.0000 B   0  0  0  0  0  0  0  0  0  0  0  0
    7.5000    4.5000    0.0000 B   0  0  0  0  0  0  0  0  0  0  0  0
   -6.0000   -3.7500    0.0000 B   0  0  0  0  0  0  0  0  0  0  0  0
   -3.0000   -3.7500    0.0000 B   0  0  0  0  0  0  0  0  0  0  0  0
    0.0000   -3.7500    0.0000 B   0  0  0  0  0  0  0  0  0  0  0  0
    3.0000   -3.7500    0.0000 B   0  0  0  0  0  0  0  0  0  0  0  0
    6.0000   -3.7500    0.0000 B   0  0  0  0  0  0  0  0  0  0  0  0
   -6.0000    3.7500    0.0000 B   0  0  0  0  0  0  0  0  0  0  0  0
   -3.0000    3.7500    0.0000 B   0  0  0  0  0  0  0  0  0  0  0  0
    0.0000    3.7500    0.0000 B   0  0  0  0  0  0  0  0  0  0  0  0
    3.0000    3.7500    0.0000 B   0  0  0  0  0  0  0  0  0  0  0  0
    6.0000    3.7500    0.0000 B   0  0  0  0  0  0  0  0  0  0  0  0
   -6.0000    0.0000    0.0000 B   0  0  0  0  0  0  0  0  0  0  0  0
   -8.6000   -4.5000    0.0000 H   0  0  0  0  0  0  0  0  0  0  0  0
   -8.6000   -1.5000    0.0000 H   0  0  0  0  0  0  0  0  0  0  0  0
   -8.6000    1.5000    0.0000 H   0  0  0  0  0  0  0  0  0  0  0  0
   -8.6000    4.5000    0.0000 H   0  0  0  0  0  0  0  0  0  0  0  0
    8.6000   -4.5000    0.0000 H   0  0  0  0  0  0  0  0  0  0  0  0
    8.6000   -1.5000    0.0000 H   0  0  0  0  0  0  0  0  0  0  0  0
    8.6000    1.5000    0.0000 H   0  0  0  0  0  0  0  0  0  0  0  0
  1  2  1  0  0  0  0
  2  3  4  0  0  0  0
  3  4  4  0  0  0  0
  4  5  4  0  0  0  0
  5  6  1  0  0  0  0
  6  7  2  0  0  0  0
  7  8  1  0  0  0  0
  8  9  4  0  0  0  0
  9 10  4  0  0  0  0
 10 11  1  0  0  0  0
 10 12  4  0  0  0  0
 12 13  4  0  0  0  0
 13 14  1  0  0  0  0
  8 15  4  0  0  0  0
 13 15  4  0  0  0  0
  5 16  4  0  0  0  0
  2 17  4  0  0  0  0
 16 17  4  0  0  0  0
  1 18  1  0  0  0  0
  3 19  1  0  0  0  0
  4 20  1  0  0  0  0
  6 21  1  0  0  0  0
  7 22  1  0  0  0  0
  9 23  1  0  0  0  0
 11 24  1  0  0  0  0
 12 25  1  0  0  0  0
 14 26  1  0  0  0  0
 15 27  1  0  0  0  0
 16 28  1  0  0  0  0
 17 29  1  0  0  0  0
 30 36  1  0  0  0  0
 31 37  1  0  0  0  0
 32 38  1  0  0  0  0
 33 39  1  0  0  0  0
 34 40  1  0  0  0  0
 35 41  1  0  0  0  0
 36 42  1  0  0  0  0
 37 43  1  0  0  0  0
 38 44  1  0  0  0  0
 39 45  1  0  0  0  0
 40 46  1  0  0  0  0
 41 47  1  0  0  0  0
 42 48  1  0  0  0  0
 43 49  1  0  0  0  0
 44 50  2  0  0  0  0
 45 51  2  0  0  0  0
 46 52  2  0  0  0  0
 47 53  1  0  0  0  0
 48 54  1  0  0  0  0
 49 55  1  0  0  0  0
 50 56  2  0  0  0  0
 51 57  2  0  0  0  0
 52 58  2  0  0  0  0
 53 59  2  0  0  0  0
 54 60  1  0  0  0  0
 55 61  1  0  0  0  0
 56 62  1  0  0  0  0
 57 63  1  0  0  0  0
 58 64  1  0  0  0  0
 59 65  1  0  0  0  0
 60 66  1  0  0  0  0
 61 67  1  0  0  0  0
 62 68  1  0  0  0  0
 63 69  1  0  0  0  0
 64 70  1  0  0  0  0
 65 71  2  0  0  0  0
 30 72  1  0  0  0  0
 31 72  1  0  0  0  0
 36 72  1  0  0  0  0
 37 72  1  0  0  0  0
 31 73  1  0  0  0  0
 32 73  1  0  0  0  0
 37 73  1  0  0  0  0
 38 73  1  0  0  0  0
 32 74  1  0  0  0  0
 33 74  1  0  0  0  0
 38 74  1  0  0  0  0
 39 74  1  0  0  0  0
 33 75  1  0  0  0  0
 34 75  1  0  0  0  0
 39 75  1  0  0  0  0
 40 75  1  0  0  0  0
 34 76  1  0  0  0  0
 35 76  1  0  0  0  0
 40 76  1  0  0  0  0
 41 76  1  0  0  0  0
 60 77  1  0  0  0  0
 61 77  1  0  0  0  0
 66 77  1  0  0  0  0
 67 77  1  0  0  0  0
 61 78  1  0  0  0  0
 62 78  1  0  0  0  0
 67 78  1  0  0  0  0
 68 78  1  0  0  0  0
 62 79  1  0  0  0  0
 63 79  1  0  0  0  0
 68 79  1  0  0  0  0
 69 79  1  0  0  0  0
 63 80  1  0  0  0  0
 64 80  1  0  0  0  0
 69 80  1  0  0  0  0
 70 80  1  0  0  0  0
 64 81  1  0  0  0  0
 65 81  1  0  0  0  0
 70 81  1  0  0  0  0
 71 81  1  0  0  0  0
 42 82  1  0  0  0  0
 43 82  1  0  0  0  0
 48 82  1  0  0  0  0
 49 82  1  0  0  0  0
 54 82  1  0  0  0  0
 55 82  1  0  0  0  0
 30 83  1  0  0  0  0
 42 84  1  0  0  0  0
 54 85  1  0  0  0  0
 66 86  1  0  0  0  0
 35 87  1  0  0  0  0
 47 88  1  0  0  0  0
 59 89  1  0  0  0  0
M  END
