 xtb: 6.7.1 (edcfbbe)
          09242620033D

 60110  0     0  0            999 V2000
   -6.5099    2.1907    0.7903 B   0  0  0  0  0  0  0  0  0  0  0  0
   -6.2524    0.6077    1.3776 B   0  0  0  0  0  0  0  0  0  0  0  0
   -5.1779    3.2749    0.9229 B   0  0  0  0  0  0  0  0  0  0  0  0
   -4.9407    1.6044    1.0404 B   0  0  0  0  0  0  0  0  0  0  0  0
   -4.6918   -0.0631    1.2556 B   0  0  0  0  0  0  0  0  0  0  0  0
   -5.7494   -2.6910    2.0168 B   0  0  0  0  0  0  0  0  0  0  0  0
   -5.5178   -4.3860    1.9828 B   0  0  0  0  0  0  0  0  0  0  0  0
   -4.4455   -1.6901    1.5620 B   0  0  0  0  0  0  0  0  0  0  0  0
   -4.1943   -3.3275    1.9448 B   0  0  0  0  0  0  0  0  0  0  0  0
   -3.9372   -4.9381    2.3871 B   0  0  0  0  0  0  0  0  0  0  0  0
   -3.6078    2.6476    0.8352 B   0  0  0  0  0  0  0  0  0  0  0  0
   -3.3646    0.9646    1.0288 B   0  0  0  0  0  0  0  0  0  0  0  0
   -2.2969    3.6147    0.3727 B   0  0  0  0  0  0  0  0  0  0  0  0
   -2.0441    2.0001    0.8045 B   0  0  0  0  0  0  0  0  0  0  0  0
   -1.7904    0.3670    1.1958 B   0  0  0  0  0  0  0  0  0  0  0  0
   -2.8703   -2.3102    1.6173 B   0  0  0  0  0  0  0  0  0  0  0  0
   -2.6122   -3.9595    1.9916 B   0  0  0  0  0  0  0  0  0  0  0  0
   -1.5433   -1.2689    1.4904 B   0  0  0  0  0  0  0  0  0  0  0  0
   -1.3008   -2.9436    1.6490 B   0  0  0  0  0  0  0  0  0  0  0  0
   -1.0623   -4.6129    1.7681 B   0  0  0  0  0  0  0  0  0  0  0  0
   -0.7178    3.0407    0.6007 B   0  0  0  0  0  0  0  0  0  0  0  0
   -0.4671    1.3785    0.8988 B   0  0  0  0  0  0  0  0  0  0  0  0
    0.6156    4.0825    0.5464 B   0  0  0  0  0  0  0  0  0  0  0  0
    0.8577    2.4195    0.7066 B   0  0  0  0  0  0  0  0  0  0  0  0
    1.1007    0.7481    0.8814 B   0  0  0  0  0  0  0  0  0  0  0  0
    0.0271   -1.8985    1.4774 B   0  0  0  0  0  0  0  0  0  0  0  0
    0.2735   -3.5749    1.6941 B   0  0  0  0  0  0  0  0  0  0  0  0
    1.3474   -0.8890    1.1699 B   0  0  0  0  0  0  0  0  0  0  0  0
    1.5983   -2.5348    1.4916 B   0  0  0  0  0  0  0  0  0  0  0  0
    1.8484   -4.1666    1.8471 B   0  0  0  0  0  0  0  0  0  0  0  0
    2.1705    3.4329    0.3465 B   0  0  0  0  0  0  0  0  0  0  0  0
    2.4287    1.7841    0.7252 B   0  0  0  0  0  0  0  0  0  0  0  0
    3.4941    4.4144   -0.0359 B   0  0  0  0  0  0  0  0  0  0  0  0
    3.7496    2.7987    0.3822 B   0  0  0  0  0  0  0  0  0  0  0  0
    4.0005    1.1587    0.7533 B   0  0  0  0  0  0  0  0  0  0  0  0
    2.9227   -1.4928    1.3028 B   0  0  0  0  0  0  0  0  0  0  0  0
    3.1638   -3.1830    1.4485 B   0  0  0  0  0  0  0  0  0  0  0  0
    4.2464   -0.4713    1.0433 B   0  0  0  0  0  0  0  0  0  0  0  0
    4.4937   -2.1409    1.2453 B   0  0  0  0  0  0  0  0  0  0  0  0
    4.7312   -3.8098    1.3621 B   0  0  0  0  0  0  0  0  0  0  0  0
    5.0766    3.8597    0.3661 B   0  0  0  0  0  0  0  0  0  0  0  0
    5.3070    2.1636    0.3097 B   0  0  0  0  0  0  0  0  0  0  0  0
    5.8065   -1.1469    0.8914 B   0  0  0  0  0  0  0  0  0  0  0  0
    6.0670   -2.7256    1.4997 B   0  0  0  0  0  0  0  0  0  0  0  0
   -7.5362    2.5692    0.3646 H   0  0  0  0  0  0  0  0  0  0  0  0
   -7.1130    0.0580    1.9481 H   0  0  0  0  0  0  0  0  0  0  0  0
   -5.3862    4.4198    1.0874 H   0  0  0  0  0  0  0  0  0  0  0  0
   -6.7449   -2.2519    2.4465 H   0  0  0  0  0  0  0  0  0  0  0  0
   -6.3761   -5.1559    1.7646 H   0  0  0  0  0  0  0  0  0  0  0  0
   -3.8149   -5.9640    2.9469 H   0  0  0  0  0  0  0  0  0  0  0  0
   -2.4817    4.6804   -0.0888 H   0  0  0  0  0  0  0  0  0  0  0  0
   -0.9209   -5.7764    1.6733 H   0  0  0  0  0  0  0  0  0  0  0  0
    0.4711    5.2461    0.6372 H   0  0  0  0  0  0  0  0  0  0  0  0
    2.0326   -5.2704    2.2096 H   0  0  0  0  0  0  0  0  0  0  0  0
    3.3741    5.4465   -0.5853 H   0  0  0  0  0  0  0  0  0  0  0  0
    4.9415   -4.9524    1.1856 H   0  0  0  0  0  0  0  0  0  0  0  0
    5.9313    4.6293    0.5985 H   0  0  0  0  0  0  0  0  0  0  0  0
    6.2991    1.7277   -0.1311 H   0  0  0  0  0  0  0  0  0  0  0  0
    6.6541   -0.6082    0.2915 H   0  0  0  0  0  0  0  0  0  0  0  0
    7.0887   -3.0990    1.9402 H   0  0  0  0  0  0  0  0  0  0  0  0
  1  2  1  0  0  0  0
  1  3  1  0  0  0  0
  1  4  1  0  0  0  0
  2  4  1  0  0  0  0
  3  4  1  0  0  0  0
  2  5  1  0  0  0  0
  4  5  1  0  0  0  0
  6  7  1  0  0  0  0
  5  8  1  0  0  0  0
  6  8  1  0  0  0  0
  6  9  1  0  0  0  0
  7  9  1  0  0  0  0
  8  9  1  0  0  0  0
  7 10  1  0  0  0  0
  9 10  1  0  0  0  0
  3 11  1  0  0  0  0
  4 11  1  0  0  0  0
  4 12  1  0  0  0  0
  5 12  1  0  0  0  0
 11 12  1  0  0  0  0
 11 13  1  0  0  0  0
 11 14  1  0  0  0  0
 12 14  1  0  0  0  0
 13 14  1  0  0  0  0
 12 15  1  0  0  0  0
 14 15  1  0  0  0  0
  8 16  1  0  0  0  0
  9 16  1  0  0  0  0
  9 17  1  0  0  0  0
 10 17  1  0  0  0  0
 16 17  1  0  0  0  0
 15 18  1  0  0  0  0
 16 18  1  0  0  0  0
 16 19  1  0  0  0  0
 17 19  1  0  0  0  0
 18 19  1  0  0  0  0
 17 20  1  0  0  0  0
 19 20  1  0  0  0  0
 13 21  1  0  0  0  0
 14 21  1  0  0  0  0
 14 22  1  0  0  0  0
 15 22  1  0  0  0  0
 21 22  1  0  0  0  0
 21 23  1  0  0  0  0
 21 24  1  0  0  0  0
 22 24  1  0  0  0  0
 23 24  1  0  0  0  0
 22 25  1  0  0  0  0
 24 25  1  0  0  0  0
 18 26  1  0  0  0  0
 19 26  1  0  0  0  0
 19 27  1  0  0  0  0
 20 27  1  0  0  0  0
 26 27  1  0  0  0  0
 25 28  1  0  0  0  0
 26 28  1  0  0  0  0
 26 29  1  0  0  0  0
 27 29  1  0  0  0  0
 28 29  1  0  0  0  0
 27 30  1  0  0  0  0
 29 30  1  0  0  0  0
 23 31  1  0  0  0  0
 24 31  1  0  0  0  0
 24 32  1  0  0  0  0
 25 32  1  0  0  0  0
 31 32  1  0  0  0  0
 31 33  1  0  0  0  0
 31 34  1  0  0  0  0
 32 34  1  0  0  0  0
 33 34  1  0  0  0  0
 32 35  1  0  0  0  0
 34 35  1  0  0  0  0
 28 36  1  0  0  0  0
 29 36  1  0  0  0  0
 29 37  1  0  0  0  0
 30 37  1  0  0  0  0
 36 37  1  0  0  0  0
 35 38  1  0  0  0  0
 36 38  1  0  0  0  0
 36 39  1  0  0  0  0
 37 39  1  0  0  0  0
 38 39  1  0  0  0  0
 37 40  1  0  0  0  0
 39 40  1  0  0  0  0
 33 41  1  0  0  0  0
 34 41  1  0  0  0  0
 34 42  1  0  0  0  0
 35 42  1  0  0  0  0
 41 42  1  0  0  0  0
 38 43  1  0  0  0  0
 39 43  1  0  0  0  0
 39 44  1  0  0  0  0
 40 44  1  0  0  0  0
 43 44  1  0  0  0  0
  1 45  1  0  0  0  0
  2 46  1  0  0  0  0
  3 47  1  0  0  0  0
  6 48  1  0  0  0  0
  7 49  1  0  0  0  0
 10 50  1  0  0  0  0
 13 51  1  0  0  0  0
 20 52  1  0  0  0  0
 23 53  1  0  0  0  0
 30 54  1  0  0  0  0
 33 55  1  0  0  0  0
 40 56  1  0  0  0  0
 41 57  1  0  0  0  0
 42 58  1  0  0  0  0
 43 59  1  0  0  0  0
 44 60  1  0  0  0  0
M  END
