 xtb: 6.7.1 (edcfbbe)
          09242610483D

 39 41  0     0  0            999 V2000
   -6.6854    1.3837    0.5713 C   0  0  0  0  0  0  0  0  0  0  0  0
   -5.3255    0.8341    0.2973 C   0  0  0  0  0  0  0  0  0  0  0  0
   -5.1807   -0.2846   -0.5334 C   0  0  0  0  0  0  0  0  0  0  0  0
   -3.9500   -0.8335   -0.8217 C   0  0  0  0  0  0  0  0  0  0  0  0
   -2.8152   -0.2490   -0.2657 C   0  0  0  0  0  0  0  0  0  0  0  0
   -2.9555    0.8756    0.5535 C   0  0  0  0  0  0  0  0  0  0  0  0
   -4.1943    1.4194    0.8452 C   0  0  0  0  0  0  0  0  0  0  0  0
   -1.3888    1.4258    1.0871 S   0  0  0  0  0  0  0  0  0  0  0  0
   -0.6124    0.1549    0.1994 C   0  0  0  0  0  0  0  0  0  0  0  0
    0.8079    0.0673    0.1758 C   0  0  0  0  0  0  0  0  0  0  0  0
    1.5452    0.5952    1.2568 C   0  0  0  0  0  0  0  0  0  0  0  0
    2.9088    0.5536    1.2884 C   0  0  0  0  0  0  0  0  0  0  0  0
    3.6544    0.0064    0.2157 C   0  0  0  0  0  0  0  0  0  0  0  0
    4.9973   -0.0481    0.2442 N   0  0  0  0  0  0  0  0  0  0  0  0
    5.7443   -0.5279   -0.8965 C   0  0  0  0  0  0  0  0  0  0  0  0
    5.7341    0.4010    1.4034 C   0  0  0  0  0  0  0  0  0  0  0  0
    2.9140   -0.4667   -0.8939 C   0  0  0  0  0  0  0  0  0  0  0  0
    1.5467   -0.4470   -0.9092 C   0  0  0  0  0  0  0  0  0  0  0  0
   -1.4966   -0.6413   -0.4189 N   0  0  0  0  0  0  0  0  0  0  0  0
   -1.1734   -1.8996   -1.0472 C   0  0  0  0  0  0  0  0  0  0  0  0
   -7.1503    1.7132   -0.3568 H   0  0  0  0  0  0  0  0  0  0  0  0
   -6.6405    2.2250    1.2561 H   0  0  0  0  0  0  0  0  0  0  0  0
   -7.3238    0.6139    1.0015 H   0  0  0  0  0  0  0  0  0  0  0  0
   -6.0657   -0.7281   -0.9627 H   0  0  0  0  0  0  0  0  0  0  0  0
   -3.8756   -1.6877   -1.4746 H   0  0  0  0  0  0  0  0  0  0  0  0
   -4.2702    2.2852    1.4831 H   0  0  0  0  0  0  0  0  0  0  0  0
    1.0111    1.0179    2.0948 H   0  0  0  0  0  0  0  0  0  0  0  0
    3.4134    0.9600    2.1475 H   0  0  0  0  0  0  0  0  0  0  0  0
    6.8078   -0.4086   -0.7111 H   0  0  0  0  0  0  0  0  0  0  0  0
    5.5460   -1.5870   -1.0800 H   0  0  0  0  0  0  0  0  0  0  0  0
    5.4930    0.0404   -1.7947 H   0  0  0  0  0  0  0  0  0  0  0  0
    5.6684    1.4862    1.5195 H   0  0  0  0  0  0  0  0  0  0  0  0
    5.3573   -0.0756    2.3099 H   0  0  0  0  0  0  0  0  0  0  0  0
    6.7812    0.1324    1.2953 H   0  0  0  0  0  0  0  0  0  0  0  0
    3.4254   -0.8487   -1.7607 H   0  0  0  0  0  0  0  0  0  0  0  0
    1.0416   -0.7712   -1.8045 H   0  0  0  0  0  0  0  0  0  0  0  0
   -0.2121   -2.2580   -0.6846 H   0  0  0  0  0  0  0  0  0  0  0  0
   -1.1418   -1.7994   -2.1337 H   0  0  0  0  0  0  0  0  0  0  0  0
   -1.9399   -2.6291   -0.7859 H   0  0  0  0  0  0  0  0  0  0  0  0
  1  2  1  0  0  0  0
  2  3  4  0  0  0  0
  3  4  4  0  0  0  0
  4  5  4  0  0  0  0
  5  6  4  0  0  0  0
  2  7  4  0  0  0  0
  6  7  4  0  0  0  0
  6  8  1  0  0  0  0
  8  9  1  0  0  0  0
  9 10  1  0  0  0  0
 10 11  4  0  0  0  0
 11 12  2  0  0  0  0
 12 13  4  0  0  0  0
 13 14  4  0  0  0  0
 14 15  1  0  0  0  0
 14 16  1  0  0  0  0
 13 17  4  0  0  0  0
 10 18  4  0  0  0  0
 17 18  2  0  0  0  0
  5 19  1  0  0  0  0
  9 19  4  0  0  0  0
 19 20  1  0  0  0  0
  1 21  1  0  0  0  0
  1 22  1  0  0  0  0
  1 23  1  0  0  0  0
  3 24  1  0  0  0  0
  4 25  1  0  0  0  0
  7 26  1  0  0  0  0
 11 27  1  0  0  0  0
 12 28  1  0  0  0  0
 15 29  1  0  0  0  0
 15 30  1  0  0  0  0
 15 31  1  0  0  0  0
 16 32  1  0  0  0  0
 16 33  1  0  0  0  0
 16 34  1  0  0  0  0
 17 35  1  0  0  0  0
 18 36  1  0  0  0  0
 20 37  1  0  0  0  0
 20 38  1  0  0  0  0
 20 39  1  0  0  0  0
M  CHG  1   1   1
M  END
