 xtb: 6.7.1 (edcfbbe)
          09242615293D

 30 32  0     0  0            999 V2000
    1.7187   -2.2297   -1.9274 O   0  0  0  0  0  0  0  0  0  0  0  0
    1.1302   -1.3870   -1.2369 C   0  0  0  0  0  0  0  0  0  0  0  0
   -0.3045   -1.2451   -1.2031 C   0  0  0  0  0  0  0  0  0  0  0  0
   -0.9082   -0.3086   -0.4292 C   0  0  0  0  0  0  0  0  0  0  0  0
   -2.3638   -0.1391   -0.3363 C   0  0  0  0  0  0  0  0  0  0  0  0
   -3.2042   -0.4983   -1.3893 C   0  0  0  0  0  0  0  0  0  0  0  0
   -4.5722   -0.3430   -1.2717 C   0  0  0  0  0  0  0  0  0  0  0  0
   -5.1203    0.1701   -0.1071 C   0  0  0  0  0  0  0  0  0  0  0  0
   -4.2916    0.5389    0.9397 C   0  0  0  0  0  0  0  0  0  0  0  0
   -2.9225    0.3904    0.8269 C   0  0  0  0  0  0  0  0  0  0  0  0
   -0.2240    0.5432    0.3554 O   0  0  0  0  0  0  0  0  0  0  0  0
    1.1305    0.4847    0.3889 C   0  0  0  0  0  0  0  0  0  0  0  0
    1.7935    1.3857    1.2103 C   0  0  0  0  0  0  0  0  0  0  0  0
    3.1786    1.3594    1.2780 C   0  0  0  0  0  0  0  0  0  0  0  0
    3.8335    2.2297    2.0721 O   0  0  0  0  0  0  0  0  0  0  0  0
    3.9036    0.4274    0.5226 C   0  0  0  0  0  0  0  0  0  0  0  0
    5.2723    0.4344    0.6220 O   0  0  0  0  0  0  0  0  0  0  0  0
    3.2457   -0.4753   -0.3033 C   0  0  0  0  0  0  0  0  0  0  0  0
    3.9785   -1.3536   -1.0131 O   0  0  0  0  0  0  0  0  0  0  0  0
    1.8392   -0.4508   -0.3776 C   0  0  0  0  0  0  0  0  0  0  0  0
   -0.8864   -1.9281   -1.7980 H   0  0  0  0  0  0  0  0  0  0  0  0
   -2.7850   -0.8799   -2.3071 H   0  0  0  0  0  0  0  0  0  0  0  0
   -5.2148   -0.6212   -2.0936 H   0  0  0  0  0  0  0  0  0  0  0  0
   -6.1900    0.2863   -0.0183 H   0  0  0  0  0  0  0  0  0  0  0  0
   -4.7139    0.9431    1.8476 H   0  0  0  0  0  0  0  0  0  0  0  0
   -2.2751    0.6728    1.6428 H   0  0  0  0  0  0  0  0  0  0  0  0
    1.2431    2.1037    1.7929 H   0  0  0  0  0  0  0  0  0  0  0  0
    4.7829    2.0568    1.9847 H   0  0  0  0  0  0  0  0  0  0  0  0
    5.6001   -0.2655    0.0409 H   0  0  0  0  0  0  0  0  0  0  0  0
    3.3259   -1.9018   -1.5326 H   0  0  0  0  0  0  0  0  0  0  0  0
  1  2  2  0  0  0  0
  2  3  1  0  0  0  0
  3  4  2  0  0  0  0
  4  5  1  0  0  0  0
  5  6  4  0  0  0  0
  6  7  4  0  0  0  0
  7  8  4  0  0  0  0
  8  9  4  0  0  0  0
  5 10  4  0  0  0  0
  9 10  4  0  0  0  0
  4 11  1  0  0  0  0
 11 12  1  0  0  0  0
 12 13  4  0  0  0  0
 13 14  4  0  0  0  0
 14 15  1  0  0  0  0
 14 16  4  0  0  0  0
 16 17  1  0  0  0  0
 16 18  4  0  0  0  0
 18 19  1  0  0  0  0
  2 20  1  0  0  0  0
 12 20  4  0  0  0  0
 18 20  4  0  0  0  0
  3 21  1  0  0  0  0
  6 22  1  0  0  0  0
  7 23  1  0  0  0  0
  8 24  1  0  0  0  0
  9 25  1  0  0  0  0
 10 26  1  0  0  0  0
 13 27  1  0  0  0  0
 15 28  1  0  0  0  0
 17 29  1  0  0  0  0
 19 30  1  0  0  0  0
M  END
