 xtb: 6.7.1 (edcfbbe)
          09242620033D

 60110  0     0  0            999 V2000
   -6.1006    3.1123    0.4100 B   0  0  0  0  0  0  0  0  0  0  0  0
   -5.9541    1.4260    0.1576 B   0  0  0  0  0  0  0  0  0  0  0  0
   -4.7235    4.0585   -0.0059 B   0  0  0  0  0  0  0  0  0  0  0  0
   -4.5780    2.3906    0.2206 B   0  0  0  0  0  0  0  0  0  0  0  0
   -4.4263    0.7046    0.3711 B   0  0  0  0  0  0  0  0  0  0  0  0
   -5.6544   -1.9564    0.2953 B   0  0  0  0  0  0  0  0  0  0  0  0
   -5.5069   -3.6079    0.7389 B   0  0  0  0  0  0  0  0  0  0  0  0
   -4.2792   -0.9608    0.4456 B   0  0  0  0  0  0  0  0  0  0  0  0
   -4.1317   -2.6535    0.4583 B   0  0  0  0  0  0  0  0  0  0  0  0
   -3.9819   -4.3346    0.3990 B   0  0  0  0  0  0  0  0  0  0  0  0
   -3.1853    3.3712    0.1632 B   0  0  0  0  0  0  0  0  0  0  0  0
   -3.0381    1.6744    0.3208 B   0  0  0  0  0  0  0  0  0  0  0  0
   -1.8038    4.3340    0.3606 B   0  0  0  0  0  0  0  0  0  0  0  0
   -1.6567    2.6517    0.2770 B   0  0  0  0  0  0  0  0  0  0  0  0
   -1.5076    0.9597    0.2367 B   0  0  0  0  0  0  0  0  0  0  0  0
   -2.7423   -1.6706    0.5148 B   0  0  0  0  0  0  0  0  0  0  0  0
   -2.5887   -3.3764    0.4743 B   0  0  0  0  0  0  0  0  0  0  0  0
   -1.3597   -0.7128    0.3226 B   0  0  0  0  0  0  0  0  0  0  0  0
   -1.2106   -2.3907    0.5479 B   0  0  0  0  0  0  0  0  0  0  0  0
   -1.0633   -4.0592    0.7644 B   0  0  0  0  0  0  0  0  0  0  0  0
   -0.2707    3.6295    0.2031 B   0  0  0  0  0  0  0  0  0  0  0  0
   -0.1208    1.9285    0.2399 B   0  0  0  0  0  0  0  0  0  0  0  0
    1.1143    4.5746   -0.0355 B   0  0  0  0  0  0  0  0  0  0  0  0
    1.2635    2.9050    0.1733 B   0  0  0  0  0  0  0  0  0  0  0  0
    1.4120    1.2213    0.3156 B   0  0  0  0  0  0  0  0  0  0  0  0
    0.1751   -1.4227    0.3391 B   0  0  0  0  0  0  0  0  0  0  0  0
    0.3254   -3.1062    0.6512 B   0  0  0  0  0  0  0  0  0  0  0  0
    1.5598   -0.4514    0.3801 B   0  0  0  0  0  0  0  0  0  0  0  0
    1.7091   -2.1347    0.5182 B   0  0  0  0  0  0  0  0  0  0  0  0
    1.8579   -3.8057    0.7076 B   0  0  0  0  0  0  0  0  0  0  0  0
    2.6444    3.8882    0.2062 B   0  0  0  0  0  0  0  0  0  0  0  0
    2.7974    2.1857    0.2265 B   0  0  0  0  0  0  0  0  0  0  0  0
    4.0337    4.8476    0.3415 B   0  0  0  0  0  0  0  0  0  0  0  0
    4.1841    3.1680    0.3023 B   0  0  0  0  0  0  0  0  0  0  0  0
    4.3316    1.4753    0.3080 B   0  0  0  0  0  0  0  0  0  0  0  0
    3.0934   -1.1576    0.4632 B   0  0  0  0  0  0  0  0  0  0  0  0
    3.2403   -2.8629    0.4344 B   0  0  0  0  0  0  0  0  0  0  0  0
    4.4784   -0.1929    0.3104 B   0  0  0  0  0  0  0  0  0  0  0  0
    4.6288   -1.8843    0.3356 B   0  0  0  0  0  0  0  0  0  0  0  0
    4.7745   -3.5640    0.3223 B   0  0  0  0  0  0  0  0  0  0  0  0
    5.5624    4.1244    0.0156 B   0  0  0  0  0  0  0  0  0  0  0  0
    5.7091    2.4681    0.4454 B   0  0  0  0  0  0  0  0  0  0  0  0
    6.0061   -0.9295    0.1722 B   0  0  0  0  0  0  0  0  0  0  0  0
    6.1567   -2.5824    0.6351 B   0  0  0  0  0  0  0  0  0  0  0  0
   -7.0800    3.6313    0.7954 H   0  0  0  0  0  0  0  0  0  0  0  0
   -6.8660    0.8218   -0.2566 H   0  0  0  0  0  0  0  0  0  0  0  0
   -4.8807    5.1505   -0.4111 H   0  0  0  0  0  0  0  0  0  0  0  0
   -6.6531   -1.5792   -0.1841 H   0  0  0  0  0  0  0  0  0  0  0  0
   -6.3909   -4.2346    1.1893 H   0  0  0  0  0  0  0  0  0  0  0  0
   -3.9445   -5.4618    0.0681 H   0  0  0  0  0  0  0  0  0  0  0  0
   -1.9148    5.4837    0.5816 H   0  0  0  0  0  0  0  0  0  0  0  0
   -0.9815   -5.1854    1.0942 H   0  0  0  0  0  0  0  0  0  0  0  0
    1.0164    5.7101   -0.3263 H   0  0  0  0  0  0  0  0  0  0  0  0
    1.9740   -4.9557    0.9275 H   0  0  0  0  0  0  0  0  0  0  0  0
    3.9909    5.9731    0.6781 H   0  0  0  0  0  0  0  0  0  0  0  0
    4.9305   -4.6778   -0.0216 H   0  0  0  0  0  0  0  0  0  0  0  0
    6.4436    4.7655   -0.4185 H   0  0  0  0  0  0  0  0  0  0  0  0
    6.6914    2.0796    0.9524 H   0  0  0  0  0  0  0  0  0  0  0  0
    6.9118   -0.3876   -0.3384 H   0  0  0  0  0  0  0  0  0  0  0  0
    7.1435   -3.0398    1.0753 H   0  0  0  0  0  0  0  0  0  0  0  0
  1  2  1  0  0  0  0
  1  3  1  0  0  0  0
  1  4  1  0  0  0  0
  2  4  1  0  0  0  0
  3  4  1  0  0  0  0
  2  5  1  0  0  0  0
  4  5  1  0  0  0  0
  6  7  1  0  0  0  0
  5  8  1  0  0  0  0
  6  8  1  0  0  0  0
  6  9  1  0  0  0  0
  7  9  1  0  0  0  0
  8  9  1  0  0  0  0
  7 10  1  0  0  0  0
  9 10  1  0  0  0  0
  3 11  1  0  0  0  0
  4 11  1  0  0  0  0
  4 12  1  0  0  0  0
  5 12  1  0  0  0  0
 11 12  1  0  0  0  0
 11 13  1  0  0  0  0
 11 14  1  0  0  0  0
 12 14  1  0  0  0  0
 13 14  1  0  0  0  0
 12 15  1  0  0  0  0
 14 15  1  0  0  0  0
  8 16  1  0  0  0  0
  9 16  1  0  0  0  0
  9 17  1  0  0  0  0
 10 17  1  0  0  0  0
 16 17  1  0  0  0  0
 15 18  1  0  0  0  0
 16 18  1  0  0  0  0
 16 19  1  0  0  0  0
 17 19  1  0  0  0  0
 18 19  1  0  0  0  0
 17 20  1  0  0  0  0
 19 20  1  0  0  0  0
 13 21  1  0  0  0  0
 14 21  1  0  0  0  0
 14 22  1  0  0  0  0
 15 22  1  0  0  0  0
 21 22  1  0  0  0  0
 21 23  1  0  0  0  0
 21 24  1  0  0  0  0
 22 24  1  0  0  0  0
 23 24  1  0  0  0  0
 22 25  1  0  0  0  0
 24 25  1  0  0  0  0
 18 26  1  0  0  0  0
 19 26  1  0  0  0  0
 19 27  1  0  0  0  0
 20 27  1  0  0  0  0
 26 27  1  0  0  0  0
 25 28  1  0  0  0  0
 26 28  1  0  0  0  0
 26 29  1  0  0  0  0
 27 29  1  0  0  0  0
 28 29  1  0  0  0  0
 27 30  1  0  0  0  0
 29 30  1  0  0  0  0
 23 31  1  0  0  0  0
 24 31  1  0  0  0  0
 24 32  1  0  0  0  0
 25 32  1  0  0  0  0
 31 32  1  0  0  0  0
 31 33  1  0  0  0  0
 31 34  1  0  0  0  0
 32 34  1  0  0  0  0
 33 34  1  0  0  0  0
 32 35  1  0  0  0  0
 34 35  1  0  0  0  0
 28 36  1  0  0  0  0
 29 36  1  0  0  0  0
 29 37  1  0  0  0  0
 30 37  1  0  0  0  0
 36 37  1  0  0  0  0
 35 38  1  0  0  0  0
 36 38  1  0  0  0  0
 36 39  1  0  0  0  0
 37 39  1  0  0  0  0
 38 39  1  0  0  0  0
 37 40  1  0  0  0  0
 39 40  1  0  0  0  0
 33 41  1  0  0  0  0
 34 41  1  0  0  0  0
 34 42  1  0  0  0  0
 35 42  1  0  0  0  0
 41 42  1  0  0  0  0
 38 43  1  0  0  0  0
 39 43  1  0  0  0  0
 39 44  1  0  0  0  0
 40 44  1  0  0  0  0
 43 44  1  0  0  0  0
  1 45  1  0  0  0  0
  2 46  1  0  0  0  0
  3 47  1  0  0  0  0
  6 48  1  0  0  0  0
  7 49  1  0  0  0  0
 10 50  1  0  0  0  0
 13 51  1  0  0  0  0
 20 52  1  0  0  0  0
 23 53  1  0  0  0  0
 30 54  1  0  0  0  0
 33 55  1  0  0  0  0
 40 56  1  0  0  0  0
 41 57  1  0  0  0  0
 42 58  1  0  0  0  0
 43 59  1  0  0  0  0
 44 60  1  0  0  0  0
M  END
