 xtb: 6.7.1 (edcfbbe)
          09232617313D

 39 41  0     0  0            999 V2000
   -5.2789    1.7312    0.0749 C   0  0  0  0  0  0  0  0  0  0  0  0
   -5.0858    0.3168   -0.1381 N   0  0  0  0  0  0  0  0  0  0  0  0
   -6.1964   -0.5442    0.1950 C   0  0  0  0  0  0  0  0  0  0  0  0
   -3.8039   -0.2014   -0.0656 C   0  0  0  0  0  0  0  0  0  0  0  0
   -3.5687   -1.5795   -0.0452 C   0  0  0  0  0  0  0  0  0  0  0  0
   -2.2824   -2.0836   -0.0305 C   0  0  0  0  0  0  0  0  0  0  0  0
   -1.1653   -1.2554   -0.0344 C   0  0  0  0  0  0  0  0  0  0  0  0
   -1.3952    0.1189   -0.0476 C   0  0  0  0  0  0  0  0  0  0  0  0
   -2.6784    0.6314   -0.0561 C   0  0  0  0  0  0  0  0  0  0  0  0
   -0.0711    1.3039   -0.0543 S   0  0  0  0  0  0  0  0  0  0  0  0
    1.3739    0.2731    0.0325 C   0  0  0  0  0  0  0  0  0  0  0  0
    2.5913    0.9249    0.0833 C   0  0  0  0  0  0  0  0  0  0  0  0
    3.8007    0.2222    0.1434 C   0  0  0  0  0  0  0  0  0  0  0  0
    5.0159    0.8798    0.2433 N   0  0  0  0  0  0  0  0  0  0  0  0
    5.0541    2.3052    0.0184 C   0  0  0  0  0  0  0  0  0  0  0  0
    6.2198    0.1467   -0.0726 C   0  0  0  0  0  0  0  0  0  0  0  0
    3.7197   -1.1735    0.1417 C   0  0  0  0  0  0  0  0  0  0  0  0
    2.4983   -1.8174    0.0929 C   0  0  0  0  0  0  0  0  0  0  0  0
    1.2976   -1.1182    0.0352 C   0  0  0  0  0  0  0  0  0  0  0  0
    0.1016   -1.8085   -0.0277 N   0  0  0  0  0  0  0  0  0  0  0  0
   -6.3337    1.9693   -0.0467 H   0  0  0  0  0  0  0  0  0  0  0  0
   -4.9611    2.0570    1.0741 H   0  0  0  0  0  0  0  0  0  0  0  0
   -4.7226    2.2993   -0.6715 H   0  0  0  0  0  0  0  0  0  0  0  0
   -6.1046   -0.9796    1.1982 H   0  0  0  0  0  0  0  0  0  0  0  0
   -7.1198    0.0291    0.1525 H   0  0  0  0  0  0  0  0  0  0  0  0
   -6.2751   -1.3549   -0.5316 H   0  0  0  0  0  0  0  0  0  0  0  0
   -4.3854   -2.2812   -0.0435 H   0  0  0  0  0  0  0  0  0  0  0  0
   -2.1343   -3.1548   -0.0154 H   0  0  0  0  0  0  0  0  0  0  0  0
   -2.7746    1.7039   -0.0570 H   0  0  0  0  0  0  0  0  0  0  0  0
    2.5683    2.0013    0.0690 H   0  0  0  0  0  0  0  0  0  0  0  0
    4.4197    2.8131    0.7455 H   0  0  0  0  0  0  0  0  0  0  0  0
    6.0724    2.6612    0.1619 H   0  0  0  0  0  0  0  0  0  0  0  0
    4.7264    2.5848   -0.9915 H   0  0  0  0  0  0  0  0  0  0  0  0
    6.3795   -0.6484    0.6578 H   0  0  0  0  0  0  0  0  0  0  0  0
    6.1893   -0.2987   -1.0752 H   0  0  0  0  0  0  0  0  0  0  0  0
    7.0732    0.8193   -0.0211 H   0  0  0  0  0  0  0  0  0  0  0  0
    4.6085   -1.7801    0.1824 H   0  0  0  0  0  0  0  0  0  0  0  0
    2.4699   -2.8985    0.0940 H   0  0  0  0  0  0  0  0  0  0  0  0
    0.1571   -2.8141   -0.0058 H   0  0  0  0  0  0  0  0  0  0  0  0
  1  2  1  0  0  0  0
  2  3  1  0  0  0  0
  2  4  1  0  0  0  0
  4  5  4  0  0  0  0
  5  6  4  0  0  0  0
  6  7  4  0  0  0  0
  7  8  4  0  0  0  0
  4  9  4  0  0  0  0
  8  9  4  0  0  0  0
  8 10  1  0  0  0  0
 10 11  1  0  0  0  0
 11 12  4  0  0  0  0
 12 13  4  0  0  0  0
 13 14  1  0  0  0  0
 14 15  1  0  0  0  0
 14 16  1  0  0  0  0
 13 17  4  0  0  0  0
 17 18  4  0  0  0  0
 11 19  4  0  0  0  0
 18 19  4  0  0  0  0
  7 20  1  0  0  0  0
 19 20  1  0  0  0  0
  1 21  1  0  0  0  0
  1 22  1  0  0  0  0
  1 23  1  0  0  0  0
  3 24  1  0  0  0  0
  3 25  1  0  0  0  0
  3 26  1  0  0  0  0
  5 27  1  0  0  0  0
  6 28  1  0  0  0  0
  9 29  1  0  0  0  0
 12 30  1  0  0  0  0
 15 31  1  0  0  0  0
 15 32  1  0  0  0  0
 15 33  1  0  0  0  0
 16 34  1  0  0  0  0
 16 35  1  0  0  0  0
 16 36  1  0  0  0  0
 17 37  1  0  0  0  0
 18 38  1  0  0  0  0
 20 39  1  0  0  0  0
M  END
