 xtb: 6.7.1 (edcfbbe)
          09242615353D

 31 33  0     0  0            999 V2000
    2.2484   -2.8225   -0.8662 O   0  0  0  0  0  0  0  0  0  0  0  0
    1.7021   -1.7672   -0.5184 C   0  0  0  0  0  0  0  0  0  0  0  0
    0.2691   -1.6101   -0.4322 C   0  0  0  0  0  0  0  0  0  0  0  0
   -0.2973   -0.4402   -0.0473 C   0  0  0  0  0  0  0  0  0  0  0  0
   -1.7427   -0.2102    0.0367 C   0  0  0  0  0  0  0  0  0  0  0  0
   -2.2371    1.0907   -0.0305 C   0  0  0  0  0  0  0  0  0  0  0  0
   -3.5976    1.3278    0.0283 C   0  0  0  0  0  0  0  0  0  0  0  0
   -4.4844    0.2745    0.1638 C   0  0  0  0  0  0  0  0  0  0  0  0
   -5.8427    0.4366    0.2300 O   0  0  0  0  0  0  0  0  0  0  0  0
   -3.9990   -1.0408    0.2462 C   0  0  0  0  0  0  0  0  0  0  0  0
   -4.8552   -2.0791    0.3925 O   0  0  0  0  0  0  0  0  0  0  0  0
   -2.6372   -1.2710    0.1806 C   0  0  0  0  0  0  0  0  0  0  0  0
    0.4308    0.6479    0.2741 O   0  0  0  0  0  0  0  0  0  0  0  0
    1.7838    0.5941    0.2171 C   0  0  0  0  0  0  0  0  0  0  0  0
    2.4805    1.7443    0.5554 C   0  0  0  0  0  0  0  0  0  0  0  0
    3.8696    1.7337    0.5079 C   0  0  0  0  0  0  0  0  0  0  0  0
    4.5210    2.8703    0.8421 O   0  0  0  0  0  0  0  0  0  0  0  0
    4.5585    0.5867    0.1265 C   0  0  0  0  0  0  0  0  0  0  0  0
    3.8706   -0.5702   -0.2122 C   0  0  0  0  0  0  0  0  0  0  0  0
    4.5441   -1.6587   -0.5748 O   0  0  0  0  0  0  0  0  0  0  0  0
    2.4558   -0.5739   -0.1673 C   0  0  0  0  0  0  0  0  0  0  0  0
   -0.3382   -2.4548   -0.7078 H   0  0  0  0  0  0  0  0  0  0  0  0
   -1.5538    1.9169   -0.1400 H   0  0  0  0  0  0  0  0  0  0  0  0
   -3.9754    2.3390   -0.0327 H   0  0  0  0  0  0  0  0  0  0  0  0
   -6.0618    1.3726    0.1670 H   0  0  0  0  0  0  0  0  0  0  0  0
   -5.7561   -1.7275    0.4193 H   0  0  0  0  0  0  0  0  0  0  0  0
   -2.2949   -2.2884    0.2660 H   0  0  0  0  0  0  0  0  0  0  0  0
    1.9564    2.6359    0.8527 H   0  0  0  0  0  0  0  0  0  0  0  0
    5.4747    2.7361    0.7711 H   0  0  0  0  0  0  0  0  0  0  0  0
    5.6378    0.5757    0.0877 H   0  0  0  0  0  0  0  0  0  0  0  0
    3.8702   -2.3681   -0.7748 H   0  0  0  0  0  0  0  0  0  0  0  0
  1  2  2  0  0  0  0
  2  3  1  0  0  0  0
  3  4  2  0  0  0  0
  4  5  1  0  0  0  0
  5  6  4  0  0  0  0
  6  7  4  0  0  0  0
  7  8  4  0  0  0  0
  8  9  1  0  0  0  0
  8 10  4  0  0  0  0
 10 11  1  0  0  0  0
  5 12  4  0  0  0  0
 10 12  4  0  0  0  0
  4 13  1  0  0  0  0
 13 14  1  0  0  0  0
 14 15  4  0  0  0  0
 15 16  4  0  0  0  0
 16 17  1  0  0  0  0
 16 18  4  0  0  0  0
 18 19  4  0  0  0  0
 19 20  1  0  0  0  0
  2 21  1  0  0  0  0
 14 21  4  0  0  0  0
 19 21  4  0  0  0  0
  3 22  1  0  0  0  0
  6 23  1  0  0  0  0
  7 24  1  0  0  0  0
  9 25  1  0  0  0  0
 11 26  1  0  0  0  0
 12 27  1  0  0  0  0
 15 28  1  0  0  0  0
 17 29  1  0  0  0  0
 18 30  1  0  0  0  0
 20 31  1  0  0  0  0
M  END
