 xtb: 6.7.1pre (5071a88)
          08312620253D

 89120  0     0  0            999 V2000
    0.4425   -2.5639    3.3440 N   0  0  0  0  0  0  0  0  0  0  0  0
    0.4458   -1.1506    3.4916 C   0  0  0  0  0  0  0  0  0  0  0  0
    1.6581   -0.4098    3.4942 C   0  0  0  0  0  0  0  0  0  0  0  0
    2.9532   -0.9889    3.4890 C   0  0  0  0  0  0  0  0  0  0  0  0
    4.1028   -0.1988    3.5087 C   0  0  0  0  0  0  0  0  0  0  0  0
    3.9816    1.1819    3.5311 C   0  0  0  0  0  0  0  0  0  0  0  0
    2.7119    1.7612    3.5259 C   0  0  0  0  0  0  0  0  0  0  0  0
    1.5530    0.9964    3.5018 C   0  0  0  0  0  0  0  0  0  0  0  0
    0.3792    1.6413    3.4711 N   0  0  0  0  0  0  0  0  0  0  0  0
   -0.7643    0.9204    3.4071 C   0  0  0  0  0  0  0  0  0  0  0  0
   -0.7849   -0.4742    3.4131 C   0  0  0  0  0  0  0  0  0  0  0  0
   -2.0837   -1.2367    3.2973 C   0  0  0  0  0  0  0  0  0  0  0  0
   -3.3255   -0.3930    3.5823 C   0  0  0  0  0  0  0  0  0  0  0  0
   -3.2374    0.9461    2.8652 C   0  0  0  0  0  0  0  0  0  0  0  0
   -2.0348    1.7303    3.3785 C   0  0  0  0  0  0  0  0  0  0  0  0
    1.2539   -3.0024    3.7663 H   0  0  0  0  0  0  0  0  0  0  0  0
    0.3973   -2.8075    2.3560 H   0  0  0  0  0  0  0  0  0  0  0  0
    3.0824   -2.0665    3.4708 H   0  0  0  0  0  0  0  0  0  0  0  0
    5.0859   -0.6622    3.5080 H   0  0  0  0  0  0  0  0  0  0  0  0
    4.8662    1.8127    3.5481 H   0  0  0  0  0  0  0  0  0  0  0  0
    2.6214    2.8452    3.5348 H   0  0  0  0  0  0  0  0  0  0  0  0
   -2.0869   -2.0868    3.9899 H   0  0  0  0  0  0  0  0  0  0  0  0
   -2.1511   -1.6366    2.2775 H   0  0  0  0  0  0  0  0  0  0  0  0
   -4.2217   -0.9368    3.2632 H   0  0  0  0  0  0  0  0  0  0  0  0
   -3.4204   -0.2246    4.6627 H   0  0  0  0  0  0  0  0  0  0  0  0
   -3.1469    0.7818    1.7840 H   0  0  0  0  0  0  0  0  0  0  0  0
   -4.1532    1.5247    3.0289 H   0  0  0  0  0  0  0  0  0  0  0  0
   -2.2340    2.0783    4.3997 H   0  0  0  0  0  0  0  0  0  0  0  0
   -1.8905    2.6192    2.7532 H   0  0  0  0  0  0  0  0  0  0  0  0
   -7.5000   -4.5000    0.0000 B   0  0  0  0  0  0  0  0  0  0  0  0
   -4.5000   -4.5000    0.0000 B   0  0  0  0  0  0  0  0  0  0  0  0
   -1.5000   -4.5000    0.0000 B   0  0  0  0  0  0  0  0  0  0  0  0
    1.5000   -4.5000    0.0000 B   0  0  0  0  0  0  0  0  0  0  0  0
    4.5000   -4.5000    0.0000 B   0  0  0  0  0  0  0  0  0  0  0  0
    7.5000   -4.5000    0.0000 B   0  0  0  0  0  0  0  0  0  0  0  0
   -7.5000   -3.0000    0.0000 B   0  0  0  0  0  0  0  0  0  0  0  0
   -4.5000   -3.0000    0.0000 B   0  0  0  0  0  0  0  0  0  0  0  0
   -1.5000   -3.0000    0.0000 B   0  0  0  0  0  0  0  0  0  0  0  0
    1.5000   -3.0000    0.0000 B   0  0  0  0  0  0  0  0  0  0  0  0
    4.5000   -3.0000    0.0000 B   0  0  0  0  0  0  0  0  0  0  0  0
    7.5000   -3.0000    0.0000 B   0  0  0  0  0  0  0  0  0  0  0  0
   -7.5000   -1.5000    0.0000 B   0  0  0  0  0  0  0  0  0  0  0  0
   -4.5000   -1.5000    0.0000 B   0  0  0  0  0  0  0  0  0  0  0  0
   -1.5000   -1.5000    0.0000 B   0  0  0  0  0  0  0  0  0  0  0  0
    1.5000   -1.5000    0.0000 B   0  0  0  0  0  0  0  0  0  0  0  0
    4.5000   -1.5000    0.0000 B   0  0  0  0  0  0  0  0  0  0  0  0
    7.5000   -1.5000    0.0000 B   0  0  0  0  0  0  0  0  0  0  0  0
   -7.5000    0.0000    0.0000 B   0  0  0  0  0  0  0  0  0  0  0  0
   -4.5000    0.0000    0.0000 B   0  0  0  0  0  0  0  0  0  0  0  0
   -1.5000    0.0000    0.0000 B   0  0  0  0  0  0  0  0  0  0  0  0
    1.5000    0.0000    0.0000 B   0  0  0  0  0  0  0  0  0  0  0  0
    4.5000    0.0000    0.0000 B   0  0  0  0  0  0  0  0  0  0  0  0
    7.5000    0.0000    0.0000 B   0  0  0  0  0  0  0  0  0  0  0  0
   -7.5000    1.5000    0.0000 B   0  0  0  0  0  0  0  0  0  0  0  0
   -4.5000    1.5000    0.0000 B   0  0  0  0  0  0  0  0  0  0  0  0
   -1.5000    1.5000    0.0000 B   0  0  0  0  0  0  0  0  0  0  0  0
    1.5000    1.5000    0.0000 B   0  0  0  0  0  0  0  0  0  0  0  0
    4.5000    1.5000    0.0000 B   0  0  0  0  0  0  0  0  0  0  0  0
    7.5000    1.5000    0.0000 B   0  0  0  0  0  0  0  0  0  0  0  0
   -7.5000    3.0000    0.0000 B   0  0  0  0  0  0  0  0  0  0  0  0
   -4.5000    3.0000    0.0000 B   0  0  0  0  0  0  0  0  0  0  0  0
   -1.5000    3.0000    0.0000 B   0  0  0  0  0  0  0  0  0  0  0  0
    1.5000    3.0000    0.0000 B   0  0  0  0  0  0  0  0  0  0  0  0
    4.5000    3.0000    0.0000 B   0  0  0  0  0  0  0  0  0  0  0  0
    7.5000    3.0000    0.0000 B   0  0  0  0  0  0  0  0  0  0  0  0
   -7.5000    4.5000    0.0000 B   0  0  0  0  0  0  0  0  0  0  0  0
   -4.5000    4.5000    0.0000 B   0  0  0  0  0  0  0  0  0  0  0  0
   -1.5000    4.5000    0.0000 B   0  0  0  0  0  0  0  0  0  0  0  0
    1.5000    4.5000    0.0000 B   0  0  0  0  0  0  0  0  0  0  0  0
    4.5000    4.5000    0.0000 B   0  0  0  0  0  0  0  0  0  0  0  0
    7.5000    4.5000    0.0000 B   0  0  0  0  0  0  0  0  0  0  0  0
   -6.0000   -3.7500    0.0000 B   0  0  0  0  0  0  0  0  0  0  0  0
   -3.0000   -3.7500    0.0000 B   0  0  0  0  0  0  0  0  0  0  0  0
    0.0000   -3.7500    0.0000 B   0  0  0  0  0  0  0  0  0  0  0  0
    3.0000   -3.7500    0.0000 B   0  0  0  0  0  0  0  0  0  0  0  0
    6.0000   -3.7500    0.0000 B   0  0  0  0  0  0  0  0  0  0  0  0
   -6.0000    3.7500    0.0000 B   0  0  0  0  0  0  0  0  0  0  0  0
   -3.0000    3.7500    0.0000 B   0  0  0  0  0  0  0  0  0  0  0  0
    0.0000    3.7500    0.0000 B   0  0  0  0  0  0  0  0  0  0  0  0
    3.0000    3.7500    0.0000 B   0  0  0  0  0  0  0  0  0  0  0  0
    6.0000    3.7500    0.0000 B   0  0  0  0  0  0  0  0  0  0  0  0
   -6.0000    0.0000    0.0000 B   0  0  0  0  0  0  0  0  0  0  0  0
   -8.6000   -4.5000    0.0000 H   0  0  0  0  0  0  0  0  0  0  0  0
   -8.6000   -1.5000    0.0000 H   0  0  0  0  0  0  0  0  0  0  0  0
   -8.6000    1.5000    0.0000 H   0  0  0  0  0  0  0  0  0  0  0  0
   -8.6000    4.5000    0.0000 H   0  0  0  0  0  0  0  0  0  0  0  0
    8.6000   -4.5000    0.0000 H   0  0  0  0  0  0  0  0  0  0  0  0
    8.6000   -1.5000    0.0000 H   0  0  0  0  0  0  0  0  0  0  0  0
    8.6000    1.5000    0.0000 H   0  0  0  0  0  0  0  0  0  0  0  0
  1  2  1  0  0  0  0
  2  3  4  0  0  0  0
  3  4  4  0  0  0  0
  4  5  4  0  0  0  0
  5  6  4  0  0  0  0
  6  7  4  0  0  0  0
  3  8  4  0  0  0  0
  7  8  4  0  0  0  0
  8  9  4  0  0  0  0
  9 10  4  0  0  0  0
  2 11  4  0  0  0  0
 10 11  4  0  0  0  0
 11 12  1  0  0  0  0
 12 13  1  0  0  0  0
 13 14  1  0  0  0  0
 10 15  1  0  0  0  0
 14 15  1  0  0  0  0
  1 16  1  0  0  0  0
  1 17  1  0  0  0  0
  4 18  1  0  0  0  0
  5 19  1  0  0  0  0
  6 20  1  0  0  0  0
  7 21  1  0  0  0  0
 12 22  1  0  0  0  0
 12 23  1  0  0  0  0
 13 24  1  0  0  0  0
 13 25  1  0  0  0  0
 14 26  1  0  0  0  0
 14 27  1  0  0  0  0
 15 28  1  0  0  0  0
 15 29  1  0  0  0  0
 30 36  1  0  0  0  0
 31 37  1  0  0  0  0
 32 38  1  0  0  0  0
 33 39  1  0  0  0  0
 34 40  1  0  0  0  0
 35 41  1  0  0  0  0
 36 42  1  0  0  0  0
 37 43  1  0  0  0  0
 38 44  1  0  0  0  0
 39 45  1  0  0  0  0
 40 46  1  0  0  0  0
 41 47  1  0  0  0  0
 42 48  1  0  0  0  0
 43 49  1  0  0  0  0
 44 50  2  0  0  0  0
 45 51  2  0  0  0  0
 46 52  2  0  0  0  0
 47 53  1  0  0  0  0
 48 54  1  0  0  0  0
 49 55  1  0  0  0  0
 50 56  2  0  0  0  0
 51 57  2  0  0  0  0
 52 58  2  0  0  0  0
 53 59  2  0  0  0  0
 54 60  1  0  0  0  0
 55 61  1  0  0  0  0
 56 62  1  0  0  0  0
 57 63  1  0  0  0  0
 58 64  1  0  0  0  0
 59 65  1  0  0  0  0
 60 66  1  0  0  0  0
 61 67  1  0  0  0  0
 62 68  1  0  0  0  0
 63 69  1  0  0  0  0
 64 70  1  0  0  0  0
 65 71  2  0  0  0  0
 30 72  1  0  0  0  0
 31 72  1  0  0  0  0
 36 72  1  0  0  0  0
 37 72  1  0  0  0  0
 31 73  1  0  0  0  0
 32 73  1  0  0  0  0
 37 73  1  0  0  0  0
 38 73  1  0  0  0  0
 32 74  1  0  0  0  0
 33 74  1  0  0  0  0
 38 74  1  0  0  0  0
 39 74  1  0  0  0  0
 33 75  1  0  0  0  0
 34 75  1  0  0  0  0
 39 75  1  0  0  0  0
 40 75  1  0  0  0  0
 34 76  1  0  0  0  0
 35 76  1  0  0  0  0
 40 76  1  0  0  0  0
 41 76  1  0  0  0  0
 60 77  1  0  0  0  0
 61 77  1  0  0  0  0
 66 77  1  0  0  0  0
 67 77  1  0  0  0  0
 61 78  1  0  0  0  0
 62 78  1  0  0  0  0
 67 78  1  0  0  0  0
 68 78  1  0  0  0  0
 62 79  1  0  0  0  0
 63 79  1  0  0  0  0
 68 79  1  0  0  0  0
 69 79  1  0  0  0  0
 63 80  1  0  0  0  0
 64 80  1  0  0  0  0
 69 80  1  0  0  0  0
 70 80  1  0  0  0  0
 64 81  1  0  0  0  0
 65 81  1  0  0  0  0
 70 81  1  0  0  0  0
 71 81  1  0  0  0  0
 42 82  1  0  0  0  0
 43 82  1  0  0  0  0
 48 82  1  0  0  0  0
 49 82  1  0  0  0  0
 54 82  1  0  0  0  0
 55 82  1  0  0  0  0
 30 83  1  0  0  0  0
 42 84  1  0  0  0  0
 54 85  1  0  0  0  0
 66 86  1  0  0  0  0
 35 87  1  0  0  0  0
 47 88  1  0  0  0  0
 59 89  1  0  0  0  0
M  END
