 xtb: 6.7.1pre (5071a88)
          09012616343D

 90132  0     0  0            999 V2000
   -1.8535   -2.4531    9.2898 O   0  0  0  0  0  0  0  0  0  0  0  0
   -1.3976   -1.5758    8.5648 C   0  0  0  0  0  0  0  0  0  0  0  0
    0.0488   -1.3377    8.4599 C   0  0  0  0  0  0  0  0  0  0  0  0
    0.4905   -0.3657    7.6486 C   0  0  0  0  0  0  0  0  0  0  0  0
    1.9293   -0.0709    7.5081 C   0  0  0  0  0  0  0  0  0  0  0  0
    2.8752   -1.0956    7.3476 C   0  0  0  0  0  0  0  0  0  0  0  0
    4.2324   -0.7951    7.2067 C   0  0  0  0  0  0  0  0  0  0  0  0
    4.6508    0.5291    7.2199 C   0  0  0  0  0  0  0  0  0  0  0  0
    5.9837    0.7750    7.0797 O   0  0  0  0  0  0  0  0  0  0  0  0
    3.7336    1.5627    7.3683 C   0  0  0  0  0  0  0  0  0  0  0  0
    2.3755    1.2607    7.5085 C   0  0  0  0  0  0  0  0  0  0  0  0
   -0.3333    0.4593    6.8979 O   0  0  0  0  0  0  0  0  0  0  0  0
   -1.6908    0.2625    6.9621 C   0  0  0  0  0  0  0  0  0  0  0  0
   -2.4882    1.1004    6.1799 C   0  0  0  0  0  0  0  0  0  0  0  0
   -3.8719    0.9440    6.2104 C   0  0  0  0  0  0  0  0  0  0  0  0
   -4.6908    1.7382    5.4633 O   0  0  0  0  0  0  0  0  0  0  0  0
   -4.4668   -0.0308    7.0070 C   0  0  0  0  0  0  0  0  0  0  0  0
   -3.6667   -0.8637    7.7842 C   0  0  0  0  0  0  0  0  0  0  0  0
   -4.3049   -1.8039    8.5470 O   0  0  0  0  0  0  0  0  0  0  0  0
   -2.2764   -0.7178    7.7617 C   0  0  0  0  0  0  0  0  0  0  0  0
    0.6926   -1.9652    9.0625 H   0  0  0  0  0  0  0  0  0  0  0  0
    2.5687   -2.1388    7.3174 H   0  0  0  0  0  0  0  0  0  0  0  0
    4.9596   -1.5930    7.0826 H   0  0  0  0  0  0  0  0  0  0  0  0
    6.1292    1.7348    7.1088 H   0  0  0  0  0  0  0  0  0  0  0  0
    4.0504    2.6008    7.3773 H   0  0  0  0  0  0  0  0  0  0  0  0
    1.6655    2.0770    7.6263 H   0  0  0  0  0  0  0  0  0  0  0  0
   -2.0209    1.8590    5.5601 H   0  0  0  0  0  0  0  0  0  0  0  0
   -4.1523    2.3614    4.9485 H   0  0  0  0  0  0  0  0  0  0  0  0
   -5.5475   -0.1418    7.0218 H   0  0  0  0  0  0  0  0  0  0  0  0
   -3.6242   -2.3159    9.0393 H   0  0  0  0  0  0  0  0  0  0  0  0
   -6.9256   -4.6511    0.2587 B   0  0  0  0  0  0  0  0  0  0  0  0
   -5.1098   -2.2493    0.3222 B   0  0  0  0  0  0  0  0  0  0  0  0
   -3.5915   -2.1814    0.2128 B   0  0  0  0  0  0  0  0  0  0  0  0
    0.9993   -2.8754    0.0638 B   0  0  0  0  0  0  0  0  0  0  0  0
    2.4759   -3.0122   -0.2709 B   0  0  0  0  0  0  0  0  0  0  0  0
    5.2994   -3.8314   -0.6672 B   0  0  0  0  0  0  0  0  0  0  0  0
    6.3183   -4.8359   -1.1558 B   0  0  0  0  0  0  0  0  0  0  0  0
   -6.4348   -3.1583    0.2864 B   0  0  0  0  0  0  0  0  0  0  0  0
   -6.7520   -1.6338    0.3164 B   0  0  0  0  0  0  0  0  0  0  0  0
   -2.0526   -2.3173    0.3349 B   0  0  0  0  0  0  0  0  0  0  0  0
   -0.4841   -2.4619    0.2574 B   0  0  0  0  0  0  0  0  0  0  0  0
    4.0184   -2.9011   -0.2872 B   0  0  0  0  0  0  0  0  0  0  0  0
    5.7532   -2.2815   -0.3028 B   0  0  0  0  0  0  0  0  0  0  0  0
    6.8301   -3.2288   -1.0929 B   0  0  0  0  0  0  0  0  0  0  0  0
   -7.6564   -0.2550    0.3431 B   0  0  0  0  0  0  0  0  0  0  0  0
   -6.0374   -0.1395    0.1913 B   0  0  0  0  0  0  0  0  0  0  0  0
   -4.4316   -0.5357    0.2239 B   0  0  0  0  0  0  0  0  0  0  0  0
   -2.7379   -0.6604    0.3290 B   0  0  0  0  0  0  0  0  0  0  0  0
   -1.0518   -0.9157    0.6419 B   0  0  0  0  0  0  0  0  0  0  0  0
    0.5171   -1.1722    0.7257 B   0  0  0  0  0  0  0  0  0  0  0  0
    3.1231   -1.4831   -0.0635 B   0  0  0  0  0  0  0  0  0  0  0  0
    4.7001   -1.1340    0.3402 B   0  0  0  0  0  0  0  0  0  0  0  0
    6.2667   -0.7872    0.2517 B   0  0  0  0  0  0  0  0  0  0  0  0
    7.6720   -0.3517    1.0327 B   0  0  0  0  0  0  0  0  0  0  0  0
   -6.9181    1.2121    0.1915 B   0  0  0  0  0  0  0  0  0  0  0  0
   -3.4184    0.7801    0.0809 B   0  0  0  0  0  0  0  0  0  0  0  0
   -1.6542    0.5326    0.1239 B   0  0  0  0  0  0  0  0  0  0  0  0
    1.8622   -0.4037    0.3246 B   0  0  0  0  0  0  0  0  0  0  0  0
    3.5847   -0.1504    0.7852 B   0  0  0  0  0  0  0  0  0  0  0  0
    6.9910    0.6111   -0.1068 B   0  0  0  0  0  0  0  0  0  0  0  0
    8.3074    1.0629    0.6316 B   0  0  0  0  0  0  0  0  0  0  0  0
   -7.6194    2.8040    0.2986 B   0  0  0  0  0  0  0  0  0  0  0  0
   -6.1238    2.5185   -0.1765 B   0  0  0  0  0  0  0  0  0  0  0  0
   -3.5886    2.3277   -0.2368 B   0  0  0  0  0  0  0  0  0  0  0  0
   -0.9061    1.8195   -0.4198 B   0  0  0  0  0  0  0  0  0  0  0  0
    1.6234    1.0199   -0.4108 B   0  0  0  0  0  0  0  0  0  0  0  0
    3.0108    1.3090    0.5297 B   0  0  0  0  0  0  0  0  0  0  0  0
    6.3729    1.8582   -0.9160 B   0  0  0  0  0  0  0  0  0  0  0  0
   -6.5277    4.0456   -0.1608 B   0  0  0  0  0  0  0  0  0  0  0  0
   -4.8736    3.4948   -0.3884 B   0  0  0  0  0  0  0  0  0  0  0  0
   -3.4155    3.8801   -0.6064 B   0  0  0  0  0  0  0  0  0  0  0  0
   -2.0235    3.2206   -0.6767 B   0  0  0  0  0  0  0  0  0  0  0  0
   -0.4974    3.2796   -0.8970 B   0  0  0  0  0  0  0  0  0  0  0  0
    0.7107    2.3324   -0.7457 B   0  0  0  0  0  0  0  0  0  0  0  0
    2.3353    2.4781   -0.4754 B   0  0  0  0  0  0  0  0  0  0  0  0
    3.8161    2.6195   -0.0941 B   0  0  0  0  0  0  0  0  0  0  0  0
    5.3698    2.8646   -0.1489 B   0  0  0  0  0  0  0  0  0  0  0  0
    6.0551    4.0800    0.6312 B   0  0  0  0  0  0  0  0  0  0  0  0
    6.2041    5.1477    0.1463 H   0  0  0  0  0  0  0  0  0  0  0  0
    8.2184   -1.1210    1.7268 H   0  0  0  0  0  0  0  0  0  0  0  0
    6.6224    1.9818   -2.0674 H   0  0  0  0  0  0  0  0  0  0  0  0
   -7.0900   -5.2506   -0.7538 H   0  0  0  0  0  0  0  0  0  0  0  0
   -6.7912    5.1815   -0.2852 H   0  0  0  0  0  0  0  0  0  0  0  0
    9.1569    1.8466    0.7900 H   0  0  0  0  0  0  0  0  0  0  0  0
   -8.8277   -0.3758    0.3286 H   0  0  0  0  0  0  0  0  0  0  0  0
    6.7839   -5.8690   -1.4465 H   0  0  0  0  0  0  0  0  0  0  0  0
   -8.7247    3.0012    0.6388 H   0  0  0  0  0  0  0  0  0  0  0  0
    7.8918   -2.8835   -1.4737 H   0  0  0  0  0  0  0  0  0  0  0  0
    6.4282    3.9996    1.7485 H   0  0  0  0  0  0  0  0  0  0  0  0
   -7.2249   -5.2823    1.2187 H   0  0  0  0  0  0  0  0  0  0  0  0
  1  2  2  0  0  0  0
  2  3  1  0  0  0  0
  3  4  2  0  0  0  0
  4  5  1  0  0  0  0
  5  6  4  0  0  0  0
  6  7  4  0  0  0  0
  7  8  4  0  0  0  0
  8  9  1  0  0  0  0
  8 10  4  0  0  0  0
  5 11  4  0  0  0  0
 10 11  4  0  0  0  0
  4 12  1  0  0  0  0
 12 13  1  0  0  0  0
 13 14  4  0  0  0  0
 14 15  4  0  0  0  0
 15 16  1  0  0  0  0
 15 17  4  0  0  0  0
 17 18  4  0  0  0  0
 18 19  1  0  0  0  0
  2 20  1  0  0  0  0
 13 20  4  0  0  0  0
 18 20  4  0  0  0  0
  3 21  1  0  0  0  0
  6 22  1  0  0  0  0
  7 23  1  0  0  0  0
  9 24  1  0  0  0  0
 10 25  1  0  0  0  0
 11 26  1  0  0  0  0
 14 27  1  0  0  0  0
 16 28  1  0  0  0  0
 17 29  1  0  0  0  0
 19 30  1  0  0  0  0
 32 33  1  0  0  0  0
 34 35  2  0  0  0  0
 36 37  2  0  0  0  0
 31 38  1  0  0  0  0
 32 38  1  0  0  0  0
 32 39  1  0  0  0  0
 38 39  1  0  0  0  0
 33 40  1  0  0  0  0
 34 41  1  0  0  0  0
 40 41  1  0  0  0  0
 35 42  1  0  0  0  0
 36 42  1  0  0  0  0
 36 43  1  0  0  0  0
 42 43  1  0  0  0  0
 36 44  1  0  0  0  0
 37 44  1  0  0  0  0
 43 44  1  0  0  0  0
 39 45  1  0  0  0  0
 39 46  1  0  0  0  0
 45 46  1  0  0  0  0
 32 47  1  0  0  0  0
 33 47  1  0  0  0  0
 46 47  1  0  0  0  0
 33 48  1  0  0  0  0
 40 48  1  0  0  0  0
 47 48  1  0  0  0  0
 40 49  1  0  0  0  0
 41 49  1  0  0  0  0
 48 49  1  0  0  0  0
 34 50  1  0  0  0  0
 41 50  1  0  0  0  0
 49 50  1  0  0  0  0
 35 51  1  0  0  0  0
 42 51  1  0  0  0  0
 42 52  1  0  0  0  0
 43 52  1  0  0  0  0
 51 52  1  0  0  0  0
 43 53  1  0  0  0  0
 52 53  1  0  0  0  0
 53 54  1  0  0  0  0
 45 55  1  0  0  0  0
 46 55  1  0  0  0  0
 47 56  1  0  0  0  0
 48 56  1  0  0  0  0
 48 57  1  0  0  0  0
 49 57  1  0  0  0  0
 56 57  1  0  0  0  0
 50 58  1  0  0  0  0
 51 58  1  0  0  0  0
 51 59  1  0  0  0  0
 52 59  1  0  0  0  0
 58 59  1  0  0  0  0
 53 60  1  0  0  0  0
 54 60  1  0  0  0  0
 54 61  1  0  0  0  0
 60 61  1  0  0  0  0
 55 62  1  0  0  0  0
 55 63  1  0  0  0  0
 62 63  1  0  0  0  0
 56 64  1  0  0  0  0
 57 65  1  0  0  0  0
 58 66  1  0  0  0  0
 59 67  1  0  0  0  0
 66 67  1  0  0  0  0
 60 68  1  0  0  0  0
 62 69  1  0  0  0  0
 63 69  1  0  0  0  0
 63 70  1  0  0  0  0
 64 70  1  0  0  0  0
 69 70  1  0  0  0  0
 64 71  1  0  0  0  0
 70 71  1  0  0  0  0
 64 72  1  0  0  0  0
 65 72  1  0  0  0  0
 71 72  1  0  0  0  0
 65 73  1  0  0  0  0
 72 73  1  0  0  0  0
 65 74  1  0  0  0  0
 66 74  1  0  0  0  0
 73 74  1  0  0  0  0
 66 75  1  0  0  0  0
 67 75  1  0  0  0  0
 74 75  1  0  0  0  0
 67 76  1  0  0  0  0
 75 76  1  0  0  0  0
 68 77  1  0  0  0  0
 76 77  1  0  0  0  0
 77 78  1  0  0  0  0
 78 79  1  0  0  0  0
 54 80  1  0  0  0  0
 68 81  1  0  0  0  0
 31 82  1  0  0  0  0
 69 83  1  0  0  0  0
 61 84  1  0  0  0  0
 45 85  1  0  0  0  0
 37 86  1  0  0  0  0
 62 87  1  0  0  0  0
 44 88  1  0  0  0  0
 78 89  1  0  0  0  0
 31 90  1  0  0  0  0
M  END
