 xtb: 6.7.1pre (5071a88)
          08312622043D

 90145  0     0  0            999 V2000
   -1.8535   -2.4531    9.7517 O   0  0  0  0  0  0  0  0  0  0  0  0
   -1.3976   -1.5758    9.0268 C   0  0  0  0  0  0  0  0  0  0  0  0
    0.0488   -1.3377    8.9218 C   0  0  0  0  0  0  0  0  0  0  0  0
    0.4905   -0.3657    8.1105 C   0  0  0  0  0  0  0  0  0  0  0  0
    1.9293   -0.0709    7.9700 C   0  0  0  0  0  0  0  0  0  0  0  0
    2.8752   -1.0956    7.8096 C   0  0  0  0  0  0  0  0  0  0  0  0
    4.2324   -0.7951    7.6686 C   0  0  0  0  0  0  0  0  0  0  0  0
    4.6508    0.5291    7.6818 C   0  0  0  0  0  0  0  0  0  0  0  0
    5.9837    0.7750    7.5417 O   0  0  0  0  0  0  0  0  0  0  0  0
    3.7336    1.5627    7.8303 C   0  0  0  0  0  0  0  0  0  0  0  0
    2.3755    1.2607    7.9704 C   0  0  0  0  0  0  0  0  0  0  0  0
   -0.3333    0.4593    7.3598 O   0  0  0  0  0  0  0  0  0  0  0  0
   -1.6908    0.2625    7.4241 C   0  0  0  0  0  0  0  0  0  0  0  0
   -2.4882    1.1004    6.6419 C   0  0  0  0  0  0  0  0  0  0  0  0
   -3.8719    0.9440    6.6724 C   0  0  0  0  0  0  0  0  0  0  0  0
   -4.6908    1.7382    5.9252 O   0  0  0  0  0  0  0  0  0  0  0  0
   -4.4668   -0.0308    7.4689 C   0  0  0  0  0  0  0  0  0  0  0  0
   -3.6667   -0.8637    8.2461 C   0  0  0  0  0  0  0  0  0  0  0  0
   -4.3049   -1.8039    9.0089 O   0  0  0  0  0  0  0  0  0  0  0  0
   -2.2764   -0.7178    8.2237 C   0  0  0  0  0  0  0  0  0  0  0  0
    0.6926   -1.9652    9.5245 H   0  0  0  0  0  0  0  0  0  0  0  0
    2.5687   -2.1388    7.7794 H   0  0  0  0  0  0  0  0  0  0  0  0
    4.9596   -1.5930    7.5445 H   0  0  0  0  0  0  0  0  0  0  0  0
    6.1292    1.7348    7.5707 H   0  0  0  0  0  0  0  0  0  0  0  0
    4.0504    2.6008    7.8392 H   0  0  0  0  0  0  0  0  0  0  0  0
    1.6655    2.0770    8.0882 H   0  0  0  0  0  0  0  0  0  0  0  0
   -2.0209    1.8590    6.0221 H   0  0  0  0  0  0  0  0  0  0  0  0
   -4.1523    2.3614    5.4104 H   0  0  0  0  0  0  0  0  0  0  0  0
   -5.5475   -0.1418    7.4837 H   0  0  0  0  0  0  0  0  0  0  0  0
   -3.6242   -2.3159    9.5013 H   0  0  0  0  0  0  0  0  0  0  0  0
   -6.3511   -2.8545   -0.3396 B   0  0  0  0  0  0  0  0  0  0  0  0
   -3.8632   -3.4276    0.8712 B   0  0  0  0  0  0  0  0  0  0  0  0
   -1.0552   -4.1651    1.9793 B   0  0  0  0  0  0  0  0  0  0  0  0
    1.6853   -4.2318    1.3549 B   0  0  0  0  0  0  0  0  0  0  0  0
    2.9703   -3.6923    0.6219 B   0  0  0  0  0  0  0  0  0  0  0  0
    5.9076   -3.8486   -0.3800 B   0  0  0  0  0  0  0  0  0  0  0  0
   -4.7612   -2.3307   -0.4078 B   0  0  0  0  0  0  0  0  0  0  0  0
   -2.6199   -2.2111    0.8442 B   0  0  0  0  0  0  0  0  0  0  0  0
   -1.2327   -2.3911    1.7792 B   0  0  0  0  0  0  0  0  0  0  0  0
    0.2814   -3.1446    1.2586 B   0  0  0  0  0  0  0  0  0  0  0  0
    3.1280   -2.1353    0.0337 B   0  0  0  0  0  0  0  0  0  0  0  0
    5.2824   -2.5807   -1.1427 B   0  0  0  0  0  0  0  0  0  0  0  0
   -4.3827   -1.0545   -1.3461 B   0  0  0  0  0  0  0  0  0  0  0  0
   -3.1924   -1.2685   -0.2398 B   0  0  0  0  0  0  0  0  0  0  0  0
   -0.7667   -0.9151    2.1471 B   0  0  0  0  0  0  0  0  0  0  0  0
    0.4341   -1.5098    0.8825 B   0  0  0  0  0  0  0  0  0  0  0  0
    4.2603   -1.2719   -0.6057 B   0  0  0  0  0  0  0  0  0  0  0  0
    6.8452   -2.4756   -0.8065 B   0  0  0  0  0  0  0  0  0  0  0  0
   -5.0072   -0.6437   -2.8496 B   0  0  0  0  0  0  0  0  0  0  0  0
   -3.1952    0.1543   -0.9257 B   0  0  0  0  0  0  0  0  0  0  0  0
   -0.9469    0.6233    2.2104 B   0  0  0  0  0  0  0  0  0  0  0  0
    0.0016   -0.0204    0.9084 B   0  0  0  0  0  0  0  0  0  0  0  0
    4.8754    0.2242   -0.5476 B   0  0  0  0  0  0  0  0  0  0  0  0
    5.8786   -1.0664   -1.1306 B   0  0  0  0  0  0  0  0  0  0  0  0
   -5.7672    0.8535   -2.9176 B   0  0  0  0  0  0  0  0  0  0  0  0
   -2.8971    1.6282   -0.7083 B   0  0  0  0  0  0  0  0  0  0  0  0
   -1.2399    2.1332    2.0889 B   0  0  0  0  0  0  0  0  0  0  0  0
    0.1883    1.5499    1.0540 B   0  0  0  0  0  0  0  0  0  0  0  0
    4.2581    1.5841    0.0647 B   0  0  0  0  0  0  0  0  0  0  0  0
    6.3075    0.4397   -1.6258 B   0  0  0  0  0  0  0  0  0  0  0  0
   -5.7341    1.7554   -1.4938 B   0  0  0  0  0  0  0  0  0  0  0  0
   -3.3469    2.9740   -0.1746 B   0  0  0  0  0  0  0  0  0  0  0  0
   -1.6646    3.6160    1.7973 B   0  0  0  0  0  0  0  0  0  0  0  0
   -0.0590    3.1640    1.3235 B   0  0  0  0  0  0  0  0  0  0  0  0
    2.9656    2.2589    0.6844 B   0  0  0  0  0  0  0  0  0  0  0  0
    5.7919    1.6725   -0.6985 B   0  0  0  0  0  0  0  0  0  0  0  0
   -6.6389    2.8000   -0.8422 B   0  0  0  0  0  0  0  0  0  0  0  0
   -4.4746    3.8873    0.5879 B   0  0  0  0  0  0  0  0  0  0  0  0
   -1.7771    5.1752    1.2154 B   0  0  0  0  0  0  0  0  0  0  0  0
    1.1754    4.4066    1.3290 B   0  0  0  0  0  0  0  0  0  0  0  0
    2.5938    3.9229    0.8796 B   0  0  0  0  0  0  0  0  0  0  0  0
    5.3509    2.9860   -0.0541 B   0  0  0  0  0  0  0  0  0  0  0  0
   -5.3190   -3.6348    0.4165 B   0  0  0  0  0  0  0  0  0  0  0  0
   -2.4877   -3.6329    1.6055 B   0  0  0  0  0  0  0  0  0  0  0  0
    0.3596   -4.7213    1.9063 B   0  0  0  0  0  0  0  0  0  0  0  0
    1.7215   -2.4162    0.7345 B   0  0  0  0  0  0  0  0  0  0  0  0
    4.3387   -3.4800   -0.0729 B   0  0  0  0  0  0  0  0  0  0  0  0
   -5.0953    2.8472   -0.3735 B   0  0  0  0  0  0  0  0  0  0  0  0
   -3.0345    4.3187    0.9326 B   0  0  0  0  0  0  0  0  0  0  0  0
   -0.2869    4.8951    1.4426 B   0  0  0  0  0  0  0  0  0  0  0  0
    1.4616    2.5482    0.9924 B   0  0  0  0  0  0  0  0  0  0  0  0
    4.0784    3.6198    0.5106 B   0  0  0  0  0  0  0  0  0  0  0  0
   -4.5957    0.5913   -1.8415 B   0  0  0  0  0  0  0  0  0  0  0  0
   -7.3684   -2.5027   -0.8103 H   0  0  0  0  0  0  0  0  0  0  0  0
   -4.9591   -1.3760   -3.7739 H   0  0  0  0  0  0  0  0  0  0  0  0
   -6.3246    1.2608   -3.8715 H   0  0  0  0  0  0  0  0  0  0  0  0
   -7.6134    3.4017   -0.5976 H   0  0  0  0  0  0  0  0  0  0  0  0
    6.3612   -4.9354   -0.3602 H   0  0  0  0  0  0  0  0  0  0  0  0
    8.0163   -2.4682   -0.9061 H   0  0  0  0  0  0  0  0  0  0  0  0
    6.9392    0.6146   -2.6128 H   0  0  0  0  0  0  0  0  0  0  0  0
  1  2  2  0  0  0  0
  2  3  1  0  0  0  0
  3  4  2  0  0  0  0
  4  5  1  0  0  0  0
  5  6  4  0  0  0  0
  6  7  4  0  0  0  0
  7  8  4  0  0  0  0
  8  9  1  0  0  0  0
  8 10  4  0  0  0  0
  5 11  4  0  0  0  0
 10 11  4  0  0  0  0
  4 12  1  0  0  0  0
 12 13  1  0  0  0  0
 13 14  4  0  0  0  0
 14 15  4  0  0  0  0
 15 16  1  0  0  0  0
 15 17  4  0  0  0  0
 17 18  4  0  0  0  0
 18 19  1  0  0  0  0
  2 20  1  0  0  0  0
 13 20  4  0  0  0  0
 18 20  4  0  0  0  0
  3 21  1  0  0  0  0
  6 22  1  0  0  0  0
  7 23  1  0  0  0  0
  9 24  1  0  0  0  0
 10 25  1  0  0  0  0
 11 26  1  0  0  0  0
 14 27  1  0  0  0  0
 16 28  1  0  0  0  0
 17 29  1  0  0  0  0
 19 30  1  0  0  0  0
 34 35  1  0  0  0  0
 31 37  1  0  0  0  0
 32 37  1  0  0  0  0
 32 38  1  0  0  0  0
 33 39  1  0  0  0  0
 38 39  1  0  0  0  0
 33 40  1  0  0  0  0
 34 40  1  0  0  0  0
 39 40  1  0  0  0  0
 35 41  1  0  0  0  0
 36 42  1  0  0  0  0
 37 43  1  0  0  0  0
 37 44  1  0  0  0  0
 38 44  1  0  0  0  0
 43 44  1  0  0  0  0
 39 45  1  0  0  0  0
 40 46  1  0  0  0  0
 45 46  1  0  0  0  0
 41 47  1  0  0  0  0
 42 47  1  0  0  0  0
 36 48  1  0  0  0  0
 42 48  1  0  0  0  0
 43 49  1  0  0  0  0
 43 50  1  0  0  0  0
 44 50  1  0  0  0  0
 45 51  1  0  0  0  0
 45 52  1  0  0  0  0
 46 52  1  0  0  0  0
 51 52  1  0  0  0  0
 47 53  1  0  0  0  0
 42 54  1  0  0  0  0
 47 54  1  0  0  0  0
 48 54  1  0  0  0  0
 53 54  1  0  0  0  0
 49 55  1  0  0  0  0
 50 56  1  0  0  0  0
 51 57  1  0  0  0  0
 51 58  1  0  0  0  0
 52 58  1  0  0  0  0
 57 58  1  0  0  0  0
 53 59  1  0  0  0  0
 53 60  1  0  0  0  0
 54 60  1  0  0  0  0
 55 61  1  0  0  0  0
 56 62  2  0  0  0  0
 57 63  1  0  0  0  0
 57 64  1  0  0  0  0
 58 64  1  0  0  0  0
 63 64  1  0  0  0  0
 59 65  1  0  0  0  0
 53 66  1  0  0  0  0
 59 66  1  0  0  0  0
 60 66  1  0  0  0  0
 61 67  1  0  0  0  0
 62 68  1  0  0  0  0
 63 69  1  0  0  0  0
 64 70  1  0  0  0  0
 65 71  1  0  0  0  0
 70 71  1  0  0  0  0
 59 72  1  0  0  0  0
 66 72  1  0  0  0  0
 31 73  2  0  0  0  0
 32 73  1  0  0  0  0
 37 73  1  0  0  0  0
 32 74  1  0  0  0  0
 33 74  1  0  0  0  0
 38 74  1  0  0  0  0
 39 74  1  0  0  0  0
 33 75  1  0  0  0  0
 34 75  1  0  0  0  0
 40 75  1  0  0  0  0
 34 76  1  0  0  0  0
 35 76  1  0  0  0  0
 40 76  1  0  0  0  0
 41 76  1  0  0  0  0
 46 76  1  0  0  0  0
 35 77  1  0  0  0  0
 36 77  1  0  0  0  0
 41 77  1  0  0  0  0
 42 77  1  0  0  0  0
 61 78  1  0  0  0  0
 62 78  1  0  0  0  0
 67 78  1  0  0  0  0
 68 78  1  0  0  0  0
 62 79  1  0  0  0  0
 63 79  1  0  0  0  0
 68 79  1  0  0  0  0
 69 79  1  0  0  0  0
 63 80  1  0  0  0  0
 64 80  1  0  0  0  0
 69 80  1  0  0  0  0
 70 80  1  0  0  0  0
 58 81  1  0  0  0  0
 64 81  1  0  0  0  0
 65 81  1  0  0  0  0
 70 81  1  0  0  0  0
 71 81  1  0  0  0  0
 59 82  1  0  0  0  0
 65 82  1  0  0  0  0
 71 82  1  0  0  0  0
 72 82  1  0  0  0  0
 43 83  1  0  0  0  0
 49 83  1  0  0  0  0
 50 83  1  0  0  0  0
 55 83  1  0  0  0  0
 61 83  1  0  0  0  0
 31 84  1  0  0  0  0
 49 85  1  0  0  0  0
 55 86  1  0  0  0  0
 67 87  1  0  0  0  0
 36 88  1  0  0  0  0
 48 89  1  0  0  0  0
 60 90  1  0  0  0  0
M  END
