 xtb: 6.7.1pre (5071a88)
          08312620233D

 90121  0     0  0            999 V2000
   -1.8535   -2.4531    5.4600 O   0  0  0  0  0  0  0  0  0  0  0  0
   -1.3976   -1.5758    4.7351 C   0  0  0  0  0  0  0  0  0  0  0  0
    0.0488   -1.3377    4.6301 C   0  0  0  0  0  0  0  0  0  0  0  0
    0.4905   -0.3657    3.8188 C   0  0  0  0  0  0  0  0  0  0  0  0
    1.9293   -0.0709    3.6783 C   0  0  0  0  0  0  0  0  0  0  0  0
    2.8752   -1.0956    3.5179 C   0  0  0  0  0  0  0  0  0  0  0  0
    4.2324   -0.7951    3.3769 C   0  0  0  0  0  0  0  0  0  0  0  0
    4.6508    0.5291    3.3901 C   0  0  0  0  0  0  0  0  0  0  0  0
    5.9837    0.7750    3.2499 O   0  0  0  0  0  0  0  0  0  0  0  0
    3.7336    1.5627    3.5386 C   0  0  0  0  0  0  0  0  0  0  0  0
    2.3755    1.2607    3.6787 C   0  0  0  0  0  0  0  0  0  0  0  0
   -0.3333    0.4593    3.0681 O   0  0  0  0  0  0  0  0  0  0  0  0
   -1.6908    0.2625    3.1323 C   0  0  0  0  0  0  0  0  0  0  0  0
   -2.4882    1.1004    2.3501 C   0  0  0  0  0  0  0  0  0  0  0  0
   -3.8719    0.9440    2.3807 C   0  0  0  0  0  0  0  0  0  0  0  0
   -4.6908    1.7382    1.6335 O   0  0  0  0  0  0  0  0  0  0  0  0
   -4.4668   -0.0308    3.1772 C   0  0  0  0  0  0  0  0  0  0  0  0
   -3.6667   -0.8637    3.9544 C   0  0  0  0  0  0  0  0  0  0  0  0
   -4.3049   -1.8039    4.7172 O   0  0  0  0  0  0  0  0  0  0  0  0
   -2.2764   -0.7178    3.9319 C   0  0  0  0  0  0  0  0  0  0  0  0
    0.6926   -1.9652    5.2328 H   0  0  0  0  0  0  0  0  0  0  0  0
    2.5687   -2.1388    3.4876 H   0  0  0  0  0  0  0  0  0  0  0  0
    4.9596   -1.5930    3.2528 H   0  0  0  0  0  0  0  0  0  0  0  0
    6.1292    1.7348    3.2790 H   0  0  0  0  0  0  0  0  0  0  0  0
    4.0504    2.6008    3.5475 H   0  0  0  0  0  0  0  0  0  0  0  0
    1.6655    2.0770    3.7965 H   0  0  0  0  0  0  0  0  0  0  0  0
   -2.0209    1.8590    1.7303 H   0  0  0  0  0  0  0  0  0  0  0  0
   -4.1523    2.3614    1.1187 H   0  0  0  0  0  0  0  0  0  0  0  0
   -5.5475   -0.1418    3.1920 H   0  0  0  0  0  0  0  0  0  0  0  0
   -3.6242   -2.3159    5.2095 H   0  0  0  0  0  0  0  0  0  0  0  0
   -7.5000   -4.5000    0.0000 B   0  0  0  0  0  0  0  0  0  0  0  0
   -4.5000   -4.5000    0.0000 B   0  0  0  0  0  0  0  0  0  0  0  0
   -1.5000   -4.5000    0.0000 B   0  0  0  0  0  0  0  0  0  0  0  0
    1.5000   -4.5000    0.0000 B   0  0  0  0  0  0  0  0  0  0  0  0
    4.5000   -4.5000    0.0000 B   0  0  0  0  0  0  0  0  0  0  0  0
    7.5000   -4.5000    0.0000 B   0  0  0  0  0  0  0  0  0  0  0  0
   -7.5000   -3.0000    0.0000 B   0  0  0  0  0  0  0  0  0  0  0  0
   -4.5000   -3.0000    0.0000 B   0  0  0  0  0  0  0  0  0  0  0  0
   -1.5000   -3.0000    0.0000 B   0  0  0  0  0  0  0  0  0  0  0  0
    1.5000   -3.0000    0.0000 B   0  0  0  0  0  0  0  0  0  0  0  0
    4.5000   -3.0000    0.0000 B   0  0  0  0  0  0  0  0  0  0  0  0
    7.5000   -3.0000    0.0000 B   0  0  0  0  0  0  0  0  0  0  0  0
   -7.5000   -1.5000    0.0000 B   0  0  0  0  0  0  0  0  0  0  0  0
   -4.5000   -1.5000    0.0000 B   0  0  0  0  0  0  0  0  0  0  0  0
   -1.5000   -1.5000    0.0000 B   0  0  0  0  0  0  0  0  0  0  0  0
    1.5000   -1.5000    0.0000 B   0  0  0  0  0  0  0  0  0  0  0  0
    4.5000   -1.5000    0.0000 B   0  0  0  0  0  0  0  0  0  0  0  0
    7.5000   -1.5000    0.0000 B   0  0  0  0  0  0  0  0  0  0  0  0
   -7.5000    0.0000    0.0000 B   0  0  0  0  0  0  0  0  0  0  0  0
   -4.5000    0.0000    0.0000 B   0  0  0  0  0  0  0  0  0  0  0  0
   -1.5000    0.0000    0.0000 B   0  0  0  0  0  0  0  0  0  0  0  0
    1.5000    0.0000    0.0000 B   0  0  0  0  0  0  0  0  0  0  0  0
    4.5000    0.0000    0.0000 B   0  0  0  0  0  0  0  0  0  0  0  0
    7.5000    0.0000    0.0000 B   0  0  0  0  0  0  0  0  0  0  0  0
   -7.5000    1.5000    0.0000 B   0  0  0  0  0  0  0  0  0  0  0  0
   -4.5000    1.5000    0.0000 B   0  0  0  0  0  0  0  0  0  0  0  0
   -1.5000    1.5000    0.0000 B   0  0  0  0  0  0  0  0  0  0  0  0
    1.5000    1.5000    0.0000 B   0  0  0  0  0  0  0  0  0  0  0  0
    4.5000    1.5000    0.0000 B   0  0  0  0  0  0  0  0  0  0  0  0
    7.5000    1.5000    0.0000 B   0  0  0  0  0  0  0  0  0  0  0  0
   -7.5000    3.0000    0.0000 B   0  0  0  0  0  0  0  0  0  0  0  0
   -4.5000    3.0000    0.0000 B   0  0  0  0  0  0  0  0  0  0  0  0
   -1.5000    3.0000    0.0000 B   0  0  0  0  0  0  0  0  0  0  0  0
    1.5000    3.0000    0.0000 B   0  0  0  0  0  0  0  0  0  0  0  0
    4.5000    3.0000    0.0000 B   0  0  0  0  0  0  0  0  0  0  0  0
    7.5000    3.0000    0.0000 B   0  0  0  0  0  0  0  0  0  0  0  0
   -7.5000    4.5000    0.0000 B   0  0  0  0  0  0  0  0  0  0  0  0
   -4.5000    4.5000    0.0000 B   0  0  0  0  0  0  0  0  0  0  0  0
   -1.5000    4.5000    0.0000 B   0  0  0  0  0  0  0  0  0  0  0  0
    1.5000    4.5000    0.0000 B   0  0  0  0  0  0  0  0  0  0  0  0
    4.5000    4.5000    0.0000 B   0  0  0  0  0  0  0  0  0  0  0  0
    7.5000    4.5000    0.0000 B   0  0  0  0  0  0  0  0  0  0  0  0
   -6.0000   -3.7500    0.0000 B   0  0  0  0  0  0  0  0  0  0  0  0
   -3.0000   -3.7500    0.0000 B   0  0  0  0  0  0  0  0  0  0  0  0
    0.0000   -3.7500    0.0000 B   0  0  0  0  0  0  0  0  0  0  0  0
    3.0000   -3.7500    0.0000 B   0  0  0  0  0  0  0  0  0  0  0  0
    6.0000   -3.7500    0.0000 B   0  0  0  0  0  0  0  0  0  0  0  0
   -6.0000    3.7500    0.0000 B   0  0  0  0  0  0  0  0  0  0  0  0
   -3.0000    3.7500    0.0000 B   0  0  0  0  0  0  0  0  0  0  0  0
    0.0000    3.7500    0.0000 B   0  0  0  0  0  0  0  0  0  0  0  0
    3.0000    3.7500    0.0000 B   0  0  0  0  0  0  0  0  0  0  0  0
    6.0000    3.7500    0.0000 B   0  0  0  0  0  0  0  0  0  0  0  0
   -6.0000    0.0000    0.0000 B   0  0  0  0  0  0  0  0  0  0  0  0
   -8.6000   -4.5000    0.0000 H   0  0  0  0  0  0  0  0  0  0  0  0
   -8.6000   -1.5000    0.0000 H   0  0  0  0  0  0  0  0  0  0  0  0
   -8.6000    1.5000    0.0000 H   0  0  0  0  0  0  0  0  0  0  0  0
   -8.6000    4.5000    0.0000 H   0  0  0  0  0  0  0  0  0  0  0  0
    8.6000   -4.5000    0.0000 H   0  0  0  0  0  0  0  0  0  0  0  0
    8.6000   -1.5000    0.0000 H   0  0  0  0  0  0  0  0  0  0  0  0
    8.6000    1.5000    0.0000 H   0  0  0  0  0  0  0  0  0  0  0  0
  1  2  2  0  0  0  0
  2  3  1  0  0  0  0
  3  4  2  0  0  0  0
  4  5  1  0  0  0  0
  5  6  4  0  0  0  0
  6  7  4  0  0  0  0
  7  8  4  0  0  0  0
  8  9  1  0  0  0  0
  8 10  4  0  0  0  0
  5 11  4  0  0  0  0
 10 11  4  0  0  0  0
  4 12  1  0  0  0  0
 12 13  1  0  0  0  0
 13 14  4  0  0  0  0
 14 15  4  0  0  0  0
 15 16  1  0  0  0  0
 15 17  4  0  0  0  0
 17 18  4  0  0  0  0
 18 19  1  0  0  0  0
  2 20  1  0  0  0  0
 13 20  4  0  0  0  0
 18 20  4  0  0  0  0
  3 21  1  0  0  0  0
  6 22  1  0  0  0  0
  7 23  1  0  0  0  0
  9 24  1  0  0  0  0
 10 25  1  0  0  0  0
 11 26  1  0  0  0  0
 14 27  1  0  0  0  0
 16 28  1  0  0  0  0
 17 29  1  0  0  0  0
 19 30  1  0  0  0  0
 31 37  1  0  0  0  0
 32 38  1  0  0  0  0
 33 39  1  0  0  0  0
 34 40  1  0  0  0  0
 35 41  1  0  0  0  0
 36 42  1  0  0  0  0
 37 43  1  0  0  0  0
 38 44  1  0  0  0  0
 39 45  1  0  0  0  0
 40 46  1  0  0  0  0
 41 47  1  0  0  0  0
 42 48  1  0  0  0  0
 43 49  1  0  0  0  0
 44 50  2  0  0  0  0
 45 51  2  0  0  0  0
 46 52  2  0  0  0  0
 47 53  2  0  0  0  0
 48 54  1  0  0  0  0
 49 55  1  0  0  0  0
 16 56  1  0  0  0  0
 50 56  1  0  0  0  0
 51 57  2  0  0  0  0
 52 58  2  0  0  0  0
 53 59  2  0  0  0  0
 54 60  2  0  0  0  0
 55 61  1  0  0  0  0
 56 62  1  0  0  0  0
 57 63  1  0  0  0  0
 58 64  1  0  0  0  0
 59 65  1  0  0  0  0
 60 66  1  0  0  0  0
 61 67  1  0  0  0  0
 62 68  1  0  0  0  0
 63 69  1  0  0  0  0
 64 70  1  0  0  0  0
 65 71  1  0  0  0  0
 66 72  2  0  0  0  0
 31 73  1  0  0  0  0
 32 73  1  0  0  0  0
 37 73  1  0  0  0  0
 38 73  1  0  0  0  0
 32 74  1  0  0  0  0
 33 74  1  0  0  0  0
 38 74  1  0  0  0  0
 39 74  1  0  0  0  0
 33 75  1  0  0  0  0
 34 75  1  0  0  0  0
 39 75  1  0  0  0  0
 40 75  1  0  0  0  0
 34 76  1  0  0  0  0
 35 76  1  0  0  0  0
 40 76  1  0  0  0  0
 41 76  1  0  0  0  0
 35 77  1  0  0  0  0
 36 77  1  0  0  0  0
 41 77  1  0  0  0  0
 42 77  1  0  0  0  0
 61 78  1  0  0  0  0
 62 78  1  0  0  0  0
 67 78  1  0  0  0  0
 68 78  1  0  0  0  0
 62 79  1  0  0  0  0
 63 79  1  0  0  0  0
 68 79  1  0  0  0  0
 69 79  1  0  0  0  0
 63 80  1  0  0  0  0
 64 80  1  0  0  0  0
 69 80  1  0  0  0  0
 70 80  1  0  0  0  0
 64 81  1  0  0  0  0
 65 81  1  0  0  0  0
 70 81  1  0  0  0  0
 71 81  1  0  0  0  0
 65 82  1  0  0  0  0
 66 82  1  0  0  0  0
 71 82  1  0  0  0  0
 72 82  1  0  0  0  0
 43 83  1  0  0  0  0
 44 83  1  0  0  0  0
 49 83  1  0  0  0  0
 50 83  1  0  0  0  0
 55 83  1  0  0  0  0
 31 84  1  0  0  0  0
 43 85  1  0  0  0  0
 55 86  1  0  0  0  0
 67 87  1  0  0  0  0
 36 88  1  0  0  0  0
 48 89  1  0  0  0  0
 60 90  1  0  0  0  0
M  END
