 xtb: 6.7.1 (edcfbbe)
          09242615293D

 33 35  0     0  0            999 V2000
   -2.1563   -2.1891    2.1594 O   0  0  0  0  0  0  0  0  0  0  0  0
   -1.7268   -1.3132    1.3799 C   0  0  0  0  0  0  0  0  0  0  0  0
   -0.2979   -1.2424    1.1198 C   0  0  0  0  0  0  0  0  0  0  0  0
    0.4266   -2.1748    1.7853 O   0  0  0  0  0  0  0  0  0  0  0  0
    0.2213   -0.3115    0.2629 C   0  0  0  0  0  0  0  0  0  0  0  0
    1.6282   -0.1456   -0.0902 C   0  0  0  0  0  0  0  0  0  0  0  0
    2.6387   -0.7759    0.6370 C   0  0  0  0  0  0  0  0  0  0  0  0
    3.9627   -0.5906    0.2868 C   0  0  0  0  0  0  0  0  0  0  0  0
    5.0009   -1.1778    0.9644 O   0  0  0  0  0  0  0  0  0  0  0  0
    4.3027    0.2223   -0.7936 C   0  0  0  0  0  0  0  0  0  0  0  0
    5.6061    0.4222   -1.1611 O   0  0  0  0  0  0  0  0  0  0  0  0
    3.2932    0.8537   -1.5263 C   0  0  0  0  0  0  0  0  0  0  0  0
    3.6132    1.6415   -2.5805 O   0  0  0  0  0  0  0  0  0  0  0  0
    1.9682    0.6695   -1.1708 C   0  0  0  0  0  0  0  0  0  0  0  0
   -0.5932    0.5757   -0.3629 O   0  0  0  0  0  0  0  0  0  0  0  0
   -1.9225    0.5794   -0.1584 C   0  0  0  0  0  0  0  0  0  0  0  0
   -2.6784    1.5338   -0.8259 C   0  0  0  0  0  0  0  0  0  0  0  0
   -4.0535    1.5680   -0.6326 C   0  0  0  0  0  0  0  0  0  0  0  0
   -4.7577    2.5117   -1.2924 O   0  0  0  0  0  0  0  0  0  0  0  0
   -4.6816    0.6567    0.2164 C   0  0  0  0  0  0  0  0  0  0  0  0
   -3.9420   -0.3024    0.8865 C   0  0  0  0  0  0  0  0  0  0  0  0
   -4.5456   -1.1717    1.6961 O   0  0  0  0  0  0  0  0  0  0  0  0
   -2.5376   -0.3447    0.7016 C   0  0  0  0  0  0  0  0  0  0  0  0
   -0.2460   -2.6929    2.2791 H   0  0  0  0  0  0  0  0  0  0  0  0
    2.3932   -1.4040    1.4763 H   0  0  0  0  0  0  0  0  0  0  0  0
    4.6442   -1.7203    1.6760 H   0  0  0  0  0  0  0  0  0  0  0  0
    6.1587   -0.0829   -0.5509 H   0  0  0  0  0  0  0  0  0  0  0  0
    4.5767    1.6431   -2.6692 H   0  0  0  0  0  0  0  0  0  0  0  0
    1.2073    1.1642   -1.7494 H   0  0  0  0  0  0  0  0  0  0  0  0
   -2.2065    2.2426   -1.4836 H   0  0  0  0  0  0  0  0  0  0  0  0
   -5.6968    2.4371   -1.0793 H   0  0  0  0  0  0  0  0  0  0  0  0
   -5.7509    0.6847    0.3642 H   0  0  0  0  0  0  0  0  0  0  0  0
   -3.8486   -1.7662    2.0739 H   0  0  0  0  0  0  0  0  0  0  0  0
  1  2  2  0  0  0  0
  2  3  1  0  0  0  0
  3  4  1  0  0  0  0
  3  5  4  0  0  0  0
  5  6  1  0  0  0  0
  6  7  4  0  0  0  0
  7  8  4  0  0  0  0
  8  9  1  0  0  0  0
  8 10  4  0  0  0  0
 10 11  1  0  0  0  0
 10 12  4  0  0  0  0
 12 13  1  0  0  0  0
  6 14  4  0  0  0  0
 12 14  4  0  0  0  0
  5 15  1  0  0  0  0
 15 16  1  0  0  0  0
 16 17  4  0  0  0  0
 17 18  4  0  0  0  0
 18 19  1  0  0  0  0
 18 20  4  0  0  0  0
 20 21  4  0  0  0  0
 21 22  1  0  0  0  0
  2 23  1  0  0  0  0
 16 23  4  0  0  0  0
 21 23  4  0  0  0  0
  4 24  1  0  0  0  0
  7 25  1  0  0  0  0
  9 26  1  0  0  0  0
 11 27  1  0  0  0  0
 13 28  1  0  0  0  0
 14 29  1  0  0  0  0
 17 30  1  0  0  0  0
 19 31  1  0  0  0  0
 20 32  1  0  0  0  0
 22 33  1  0  0  0  0
M  END
