 xtb: 6.7.1pre (5071a88)
          09012616343D

 91133  0     0  0            999 V2000
    1.8845   -1.7423    9.7027 O   0  0  0  0  0  0  0  0  0  0  0  0
    1.5016   -1.0929    8.7391 C   0  0  0  0  0  0  0  0  0  0  0  0
    0.0529   -0.9617    8.4996 C   0  0  0  0  0  0  0  0  0  0  0  0
   -0.3875   -0.2479    7.4558 C   0  0  0  0  0  0  0  0  0  0  0  0
   -1.8281   -0.0771    7.1808 C   0  0  0  0  0  0  0  0  0  0  0  0
   -2.3206    1.1786    6.7759 C   0  0  0  0  0  0  0  0  0  0  0  0
   -3.6793    1.3694    6.4980 C   0  0  0  0  0  0  0  0  0  0  0  0
   -4.5499    0.2959    6.6199 C   0  0  0  0  0  0  0  0  0  0  0  0
   -5.8872    0.4148    6.3632 O   0  0  0  0  0  0  0  0  0  0  0  0
   -4.0734   -0.9519    7.0102 C   0  0  0  0  0  0  0  0  0  0  0  0
   -4.9357   -2.0054    7.1214 O   0  0  0  0  0  0  0  0  0  0  0  0
   -2.7265   -1.1495    7.2879 C   0  0  0  0  0  0  0  0  0  0  0  0
    0.4412    0.4099    6.5651 O   0  0  0  0  0  0  0  0  0  0  0  0
    1.7998    0.3070    6.7344 C   0  0  0  0  0  0  0  0  0  0  0  0
    2.5840    0.9748    5.7920 C   0  0  0  0  0  0  0  0  0  0  0  0
    3.9682    0.9226    5.8904 C   0  0  0  0  0  0  0  0  0  0  0  0
    4.6934    1.5898    4.9485 O   0  0  0  0  0  0  0  0  0  0  0  0
    4.5851    0.2132    6.9162 C   0  0  0  0  0  0  0  0  0  0  0  0
    3.7953   -0.4542    7.8587 C   0  0  0  0  0  0  0  0  0  0  0  0
    4.4139   -1.1467    8.8601 O   0  0  0  0  0  0  0  0  0  0  0  0
    2.3956   -0.4116    7.7744 C   0  0  0  0  0  0  0  0  0  0  0  0
   -0.5962   -1.4575    9.2104 H   0  0  0  0  0  0  0  0  0  0  0  0
   -1.6425    2.0251    6.6801 H   0  0  0  0  0  0  0  0  0  0  0  0
   -4.0270    2.3508    6.1924 H   0  0  0  0  0  0  0  0  0  0  0  0
   -6.0654    1.3351    6.1034 H   0  0  0  0  0  0  0  0  0  0  0  0
   -5.8084   -1.6354    6.8804 H   0  0  0  0  0  0  0  0  0  0  0  0
   -2.3913   -2.1428    7.5734 H   0  0  0  0  0  0  0  0  0  0  0  0
    2.1168    1.5315    4.9842 H   0  0  0  0  0  0  0  0  0  0  0  0
    5.6412    1.4669    5.1227 H   0  0  0  0  0  0  0  0  0  0  0  0
    5.6671    0.1791    6.9837 H   0  0  0  0  0  0  0  0  0  0  0  0
    5.3782   -1.0878    8.7796 H   0  0  0  0  0  0  0  0  0  0  0  0
   -6.9256   -4.6511    0.2587 B   0  0  0  0  0  0  0  0  0  0  0  0
   -5.1098   -2.2493    0.3222 B   0  0  0  0  0  0  0  0  0  0  0  0
   -3.5915   -2.1814    0.2128 B   0  0  0  0  0  0  0  0  0  0  0  0
    0.9993   -2.8754    0.0638 B   0  0  0  0  0  0  0  0  0  0  0  0
    2.4759   -3.0122   -0.2709 B   0  0  0  0  0  0  0  0  0  0  0  0
    5.2994   -3.8314   -0.6672 B   0  0  0  0  0  0  0  0  0  0  0  0
    6.3183   -4.8359   -1.1558 B   0  0  0  0  0  0  0  0  0  0  0  0
   -6.4348   -3.1583    0.2864 B   0  0  0  0  0  0  0  0  0  0  0  0
   -6.7520   -1.6338    0.3164 B   0  0  0  0  0  0  0  0  0  0  0  0
   -2.0526   -2.3173    0.3349 B   0  0  0  0  0  0  0  0  0  0  0  0
   -0.4841   -2.4619    0.2574 B   0  0  0  0  0  0  0  0  0  0  0  0
    4.0184   -2.9011   -0.2872 B   0  0  0  0  0  0  0  0  0  0  0  0
    5.7532   -2.2815   -0.3028 B   0  0  0  0  0  0  0  0  0  0  0  0
    6.8301   -3.2288   -1.0929 B   0  0  0  0  0  0  0  0  0  0  0  0
   -7.6564   -0.2550    0.3431 B   0  0  0  0  0  0  0  0  0  0  0  0
   -6.0374   -0.1395    0.1913 B   0  0  0  0  0  0  0  0  0  0  0  0
   -4.4316   -0.5357    0.2239 B   0  0  0  0  0  0  0  0  0  0  0  0
   -2.7379   -0.6604    0.3290 B   0  0  0  0  0  0  0  0  0  0  0  0
   -1.0518   -0.9157    0.6419 B   0  0  0  0  0  0  0  0  0  0  0  0
    0.5171   -1.1722    0.7257 B   0  0  0  0  0  0  0  0  0  0  0  0
    3.1231   -1.4831   -0.0635 B   0  0  0  0  0  0  0  0  0  0  0  0
    4.7001   -1.1340    0.3402 B   0  0  0  0  0  0  0  0  0  0  0  0
    6.2667   -0.7872    0.2517 B   0  0  0  0  0  0  0  0  0  0  0  0
    7.6720   -0.3517    1.0327 B   0  0  0  0  0  0  0  0  0  0  0  0
   -6.9181    1.2121    0.1915 B   0  0  0  0  0  0  0  0  0  0  0  0
   -3.4184    0.7801    0.0809 B   0  0  0  0  0  0  0  0  0  0  0  0
   -1.6542    0.5326    0.1239 B   0  0  0  0  0  0  0  0  0  0  0  0
    1.8622   -0.4037    0.3246 B   0  0  0  0  0  0  0  0  0  0  0  0
    3.5847   -0.1504    0.7852 B   0  0  0  0  0  0  0  0  0  0  0  0
    6.9910    0.6111   -0.1068 B   0  0  0  0  0  0  0  0  0  0  0  0
    8.3074    1.0629    0.6316 B   0  0  0  0  0  0  0  0  0  0  0  0
   -7.6194    2.8040    0.2986 B   0  0  0  0  0  0  0  0  0  0  0  0
   -6.1238    2.5185   -0.1765 B   0  0  0  0  0  0  0  0  0  0  0  0
   -3.5886    2.3277   -0.2368 B   0  0  0  0  0  0  0  0  0  0  0  0
   -0.9061    1.8195   -0.4198 B   0  0  0  0  0  0  0  0  0  0  0  0
    1.6234    1.0199   -0.4108 B   0  0  0  0  0  0  0  0  0  0  0  0
    3.0108    1.3090    0.5297 B   0  0  0  0  0  0  0  0  0  0  0  0
    6.3729    1.8582   -0.9160 B   0  0  0  0  0  0  0  0  0  0  0  0
   -6.5277    4.0456   -0.1608 B   0  0  0  0  0  0  0  0  0  0  0  0
   -4.8736    3.4948   -0.3884 B   0  0  0  0  0  0  0  0  0  0  0  0
   -3.4155    3.8801   -0.6064 B   0  0  0  0  0  0  0  0  0  0  0  0
   -2.0235    3.2206   -0.6767 B   0  0  0  0  0  0  0  0  0  0  0  0
   -0.4974    3.2796   -0.8970 B   0  0  0  0  0  0  0  0  0  0  0  0
    0.7107    2.3324   -0.7457 B   0  0  0  0  0  0  0  0  0  0  0  0
    2.3353    2.4781   -0.4754 B   0  0  0  0  0  0  0  0  0  0  0  0
    3.8161    2.6195   -0.0941 B   0  0  0  0  0  0  0  0  0  0  0  0
    5.3698    2.8646   -0.1489 B   0  0  0  0  0  0  0  0  0  0  0  0
    6.0551    4.0800    0.6312 B   0  0  0  0  0  0  0  0  0  0  0  0
    6.2041    5.1477    0.1463 H   0  0  0  0  0  0  0  0  0  0  0  0
    8.2184   -1.1210    1.7268 H   0  0  0  0  0  0  0  0  0  0  0  0
    6.6224    1.9818   -2.0674 H   0  0  0  0  0  0  0  0  0  0  0  0
   -7.0900   -5.2506   -0.7538 H   0  0  0  0  0  0  0  0  0  0  0  0
   -6.7912    5.1815   -0.2852 H   0  0  0  0  0  0  0  0  0  0  0  0
    9.1569    1.8466    0.7900 H   0  0  0  0  0  0  0  0  0  0  0  0
   -8.8277   -0.3758    0.3286 H   0  0  0  0  0  0  0  0  0  0  0  0
    6.7839   -5.8690   -1.4465 H   0  0  0  0  0  0  0  0  0  0  0  0
   -8.7247    3.0012    0.6388 H   0  0  0  0  0  0  0  0  0  0  0  0
    7.8918   -2.8835   -1.4737 H   0  0  0  0  0  0  0  0  0  0  0  0
    6.4282    3.9996    1.7485 H   0  0  0  0  0  0  0  0  0  0  0  0
   -7.2249   -5.2823    1.2187 H   0  0  0  0  0  0  0  0  0  0  0  0
  1  2  2  0  0  0  0
  2  3  1  0  0  0  0
  3  4  2  0  0  0  0
  4  5  1  0  0  0  0
  5  6  4  0  0  0  0
  6  7  4  0  0  0  0
  7  8  4  0  0  0  0
  8  9  1  0  0  0  0
  8 10  4  0  0  0  0
 10 11  1  0  0  0  0
  5 12  4  0  0  0  0
 10 12  4  0  0  0  0
  4 13  1  0  0  0  0
 13 14  1  0  0  0  0
 14 15  4  0  0  0  0
 15 16  4  0  0  0  0
 16 17  1  0  0  0  0
 16 18  4  0  0  0  0
 18 19  4  0  0  0  0
 19 20  1  0  0  0  0
  2 21  1  0  0  0  0
 14 21  4  0  0  0  0
 19 21  4  0  0  0  0
  3 22  1  0  0  0  0
  6 23  1  0  0  0  0
  7 24  1  0  0  0  0
  9 25  1  0  0  0  0
 11 26  1  0  0  0  0
 12 27  1  0  0  0  0
 15 28  1  0  0  0  0
 17 29  1  0  0  0  0
 18 30  1  0  0  0  0
 20 31  1  0  0  0  0
 33 34  1  0  0  0  0
 35 36  2  0  0  0  0
 37 38  2  0  0  0  0
 32 39  1  0  0  0  0
 33 39  1  0  0  0  0
 33 40  1  0  0  0  0
 39 40  1  0  0  0  0
 34 41  1  0  0  0  0
 35 42  1  0  0  0  0
 41 42  1  0  0  0  0
 36 43  1  0  0  0  0
 37 43  1  0  0  0  0
 37 44  1  0  0  0  0
 43 44  1  0  0  0  0
 37 45  1  0  0  0  0
 38 45  1  0  0  0  0
 44 45  1  0  0  0  0
 40 46  1  0  0  0  0
 40 47  1  0  0  0  0
 46 47  1  0  0  0  0
 33 48  1  0  0  0  0
 34 48  1  0  0  0  0
 47 48  1  0  0  0  0
 34 49  1  0  0  0  0
 41 49  1  0  0  0  0
 48 49  1  0  0  0  0
 41 50  1  0  0  0  0
 42 50  1  0  0  0  0
 49 50  1  0  0  0  0
 35 51  1  0  0  0  0
 42 51  1  0  0  0  0
 50 51  1  0  0  0  0
 36 52  1  0  0  0  0
 43 52  1  0  0  0  0
 43 53  1  0  0  0  0
 44 53  1  0  0  0  0
 52 53  1  0  0  0  0
 44 54  1  0  0  0  0
 53 54  1  0  0  0  0
 54 55  1  0  0  0  0
 46 56  1  0  0  0  0
 47 56  1  0  0  0  0
 48 57  1  0  0  0  0
 49 57  1  0  0  0  0
 49 58  1  0  0  0  0
 50 58  1  0  0  0  0
 57 58  1  0  0  0  0
 51 59  1  0  0  0  0
 52 59  1  0  0  0  0
 52 60  1  0  0  0  0
 53 60  1  0  0  0  0
 59 60  1  0  0  0  0
 54 61  1  0  0  0  0
 55 61  1  0  0  0  0
 55 62  1  0  0  0  0
 61 62  1  0  0  0  0
 56 63  1  0  0  0  0
 56 64  1  0  0  0  0
 63 64  1  0  0  0  0
 57 65  1  0  0  0  0
 58 66  1  0  0  0  0
 59 67  1  0  0  0  0
 60 68  1  0  0  0  0
 67 68  1  0  0  0  0
 61 69  1  0  0  0  0
 63 70  1  0  0  0  0
 64 70  1  0  0  0  0
 64 71  1  0  0  0  0
 65 71  1  0  0  0  0
 70 71  1  0  0  0  0
 65 72  1  0  0  0  0
 71 72  1  0  0  0  0
 65 73  1  0  0  0  0
 66 73  1  0  0  0  0
 72 73  1  0  0  0  0
 66 74  1  0  0  0  0
 73 74  1  0  0  0  0
 66 75  1  0  0  0  0
 67 75  1  0  0  0  0
 74 75  1  0  0  0  0
 67 76  1  0  0  0  0
 68 76  1  0  0  0  0
 75 76  1  0  0  0  0
 68 77  1  0  0  0  0
 76 77  1  0  0  0  0
 69 78  1  0  0  0  0
 77 78  1  0  0  0  0
 78 79  1  0  0  0  0
 79 80  1  0  0  0  0
 55 81  1  0  0  0  0
 69 82  1  0  0  0  0
 32 83  1  0  0  0  0
 70 84  1  0  0  0  0
 62 85  1  0  0  0  0
 46 86  1  0  0  0  0
 38 87  1  0  0  0  0
 63 88  1  0  0  0  0
 45 89  1  0  0  0  0
 79 90  1  0  0  0  0
 32 91  1  0  0  0  0
M  END
