 xtb: 6.7.1pre (5071a88)
          09012620283D

 99137  0     0  0            999 V2000
    6.7670   -1.9234    9.4229 N   0  0  0  0  0  0  0  0  0  0  0  0
    5.3996   -1.5711    9.3359 C   0  0  0  0  0  0  0  0  0  0  0  0
    4.4825   -2.6262    9.3589 C   0  0  0  0  0  0  0  0  0  0  0  0
    3.1251   -2.3901    9.1757 C   0  0  0  0  0  0  0  0  0  0  0  0
    2.6547   -1.0949    8.9322 C   0  0  0  0  0  0  0  0  0  0  0  0
    1.2716   -0.8959    8.7254 N   0  0  0  0  0  0  0  0  0  0  0  0
    0.6556   -0.9903    9.8106 N   0  0  0  0  0  0  0  0  0  0  0  0
   -0.7187   -0.7616    9.6210 C   0  0  0  0  0  0  0  0  0  0  0  0
   -1.5034   -1.5911    8.8226 C   0  0  0  0  0  0  0  0  0  0  0  0
   -2.8737   -1.3503    8.6790 C   0  0  0  0  0  0  0  0  0  0  0  0
   -3.5143   -0.2684    9.3349 C   0  0  0  0  0  0  0  0  0  0  0  0
   -4.8972    0.0463    9.2590 C   0  0  0  0  0  0  0  0  0  0  0  0
   -6.0105   -0.9123    8.2620 S   0  0  0  0  0  0  0  0  0  0  0  0
   -5.9945   -2.2744    8.7444 O   0  0  0  0  0  0  0  0  0  0  0  0
   -7.2500   -0.1775    8.1135 O   0  0  0  0  0  0  0  0  0  0  0  0
   -5.3626   -0.8941    6.7842 O   0  0  0  0  0  0  0  0  0  0  0  0
   -5.4465    1.1300    9.9638 C   0  0  0  0  0  0  0  0  0  0  0  0
   -4.6344    1.9639   10.7222 C   0  0  0  0  0  0  0  0  0  0  0  0
   -5.1980    2.9657   11.5161 N   0  0  0  0  0  0  0  0  0  0  0  0
   -3.2833    1.6403   10.8479 C   0  0  0  0  0  0  0  0  0  0  0  0
   -2.7095    0.5582   10.1560 C   0  0  0  0  0  0  0  0  0  0  0  0
   -1.3343    0.2972   10.2912 C   0  0  0  0  0  0  0  0  0  0  0  0
    3.5711   -0.0184    8.8276 C   0  0  0  0  0  0  0  0  0  0  0  0
    3.1376    1.2934    8.5287 C   0  0  0  0  0  0  0  0  0  0  0  0
    4.0346    2.3527    8.4034 C   0  0  0  0  0  0  0  0  0  0  0  0
    5.3909    2.1247    8.5724 C   0  0  0  0  0  0  0  0  0  0  0  0
    5.8468    0.8394    8.8729 C   0  0  0  0  0  0  0  0  0  0  0  0
    4.9611   -0.2564    9.0155 C   0  0  0  0  0  0  0  0  0  0  0  0
    7.3456   -1.1636    9.7650 H   0  0  0  0  0  0  0  0  0  0  0  0
    7.1074   -2.2299    8.5133 H   0  0  0  0  0  0  0  0  0  0  0  0
    4.8292   -3.6401    9.5444 H   0  0  0  0  0  0  0  0  0  0  0  0
    2.4232   -3.2185    9.2216 H   0  0  0  0  0  0  0  0  0  0  0  0
   -1.0490   -2.4356    8.3103 H   0  0  0  0  0  0  0  0  0  0  0  0
   -3.4303   -2.0415    8.0490 H   0  0  0  0  0  0  0  0  0  0  0  0
   -6.0353   -0.5214    6.1757 H   0  0  0  0  0  0  0  0  0  0  0  0
   -6.5160    1.3257    9.9211 H   0  0  0  0  0  0  0  0  0  0  0  0
   -4.5524    3.6990   11.7931 H   0  0  0  0  0  0  0  0  0  0  0  0
   -6.0784    3.3365   11.1715 H   0  0  0  0  0  0  0  0  0  0  0  0
   -2.6593    2.2460   11.5032 H   0  0  0  0  0  0  0  0  0  0  0  0
   -0.7167    0.9278   10.9285 H   0  0  0  0  0  0  0  0  0  0  0  0
    2.0778    1.4988    8.3847 H   0  0  0  0  0  0  0  0  0  0  0  0
    3.6704    3.3497    8.1707 H   0  0  0  0  0  0  0  0  0  0  0  0
    6.0984    2.9436    8.4725 H   0  0  0  0  0  0  0  0  0  0  0  0
    6.9181    0.7083    8.9938 H   0  0  0  0  0  0  0  0  0  0  0  0
   -4.7806   -2.6045    0.3173 B   0  0  0  0  0  0  0  0  0  0  0  0
   -4.5695   -1.3567   -0.6480 B   0  0  0  0  0  0  0  0  0  0  0  0
   -4.4639   -0.2474   -1.8829 B   0  0  0  0  0  0  0  0  0  0  0  0
   -3.3965   -2.6620   -0.5028 B   0  0  0  0  0  0  0  0  0  0  0  0
   -3.0380    0.1776   -1.4048 B   0  0  0  0  0  0  0  0  0  0  0  0
   -4.3909    0.3426   -0.1924 B   0  0  0  0  0  0  0  0  0  0  0  0
   -5.0310    1.4031    0.8192 B   0  0  0  0  0  0  0  0  0  0  0  0
   -4.6201    2.9864    0.9976 B   0  0  0  0  0  0  0  0  0  0  0  0
   -2.8089    0.5128    0.1995 B   0  0  0  0  0  0  0  0  0  0  0  0
   -3.2186    3.2275    1.7932 B   0  0  0  0  0  0  0  0  0  0  0  0
   -2.1611   -3.7758   -0.5843 B   0  0  0  0  0  0  0  0  0  0  0  0
   -1.8769   -2.2481   -0.9334 B   0  0  0  0  0  0  0  0  0  0  0  0
   -1.6972   -0.6133   -0.8358 B   0  0  0  0  0  0  0  0  0  0  0  0
   -0.5844   -3.2190   -0.8350 B   0  0  0  0  0  0  0  0  0  0  0  0
   -0.2198   -0.1484   -0.3118 B   0  0  0  0  0  0  0  0  0  0  0  0
   -1.3950    0.0358    0.8521 B   0  0  0  0  0  0  0  0  0  0  0  0
   -1.7757    1.6621    0.7592 B   0  0  0  0  0  0  0  0  0  0  0  0
   -1.8975    3.2370    0.8826 B   0  0  0  0  0  0  0  0  0  0  0  0
   -0.2153    1.0372    1.0697 B   0  0  0  0  0  0  0  0  0  0  0  0
   -0.7521    4.3480    0.5584 B   0  0  0  0  0  0  0  0  0  0  0  0
    0.8265   -4.1129   -0.7400 B   0  0  0  0  0  0  0  0  0  0  0  0
    0.9251   -2.5054   -0.7497 B   0  0  0  0  0  0  0  0  0  0  0  0
    1.2144   -0.9490   -0.5870 B   0  0  0  0  0  0  0  0  0  0  0  0
    2.2007   -3.4026   -0.1682 B   0  0  0  0  0  0  0  0  0  0  0  0
    2.6220   -0.1957   -0.2930 B   0  0  0  0  0  0  0  0  0  0  0  0
    1.2341    0.5516    0.1426 B   0  0  0  0  0  0  0  0  0  0  0  0
    1.1248    2.0009    1.0430 B   0  0  0  0  0  0  0  0  0  0  0  0
    0.5366    3.4372    0.6180 B   0  0  0  0  0  0  0  0  0  0  0  0
    2.4580    1.6726    0.0875 B   0  0  0  0  0  0  0  0  0  0  0  0
    1.2136    3.0171   -0.8530 B   0  0  0  0  0  0  0  0  0  0  0  0
    3.2202   -3.8508    1.1044 B   0  0  0  0  0  0  0  0  0  0  0  0
    3.6240   -2.6535    0.0637 B   0  0  0  0  0  0  0  0  0  0  0  0
    4.0250   -1.1219   -0.2366 B   0  0  0  0  0  0  0  0  0  0  0  0
    4.4174   -2.8355    1.4203 B   0  0  0  0  0  0  0  0  0  0  0  0
    5.3636   -0.2419   -0.6898 B   0  0  0  0  0  0  0  0  0  0  0  0
    4.1041    0.5310   -0.0135 B   0  0  0  0  0  0  0  0  0  0  0  0
    4.0181    2.3218   -0.0338 B   0  0  0  0  0  0  0  0  0  0  0  0
    2.8218    3.0968   -0.9129 B   0  0  0  0  0  0  0  0  0  0  0  0
    5.4220    1.4583   -0.1853 B   0  0  0  0  0  0  0  0  0  0  0  0
    4.2961    3.5501   -1.0140 B   0  0  0  0  0  0  0  0  0  0  0  0
   -5.1687   -3.0949    1.3107 H   0  0  0  0  0  0  0  0  0  0  0  0
   -5.7161   -2.0764   -0.3935 H   0  0  0  0  0  0  0  0  0  0  0  0
   -5.2640   -0.1207   -2.7417 H   0  0  0  0  0  0  0  0  0  0  0  0
   -5.7711    1.0074    1.6646 H   0  0  0  0  0  0  0  0  0  0  0  0
   -5.3645    3.8431    0.6720 H   0  0  0  0  0  0  0  0  0  0  0  0
   -3.2343    3.2250    2.9757 H   0  0  0  0  0  0  0  0  0  0  0  0
   -2.3593   -4.9262   -0.4732 H   0  0  0  0  0  0  0  0  0  0  0  0
   -0.8965    5.4755    0.2443 H   0  0  0  0  0  0  0  0  0  0  0  0
    0.8223   -5.2498   -1.0233 H   0  0  0  0  0  0  0  0  0  0  0  0
    0.5537    2.6943   -1.7837 H   0  0  0  0  0  0  0  0  0  0  0  0
    2.9703   -4.8176    1.7172 H   0  0  0  0  0  0  0  0  0  0  0  0
    5.2631   -2.5125    2.1565 H   0  0  0  0  0  0  0  0  0  0  0  0
    6.3848   -0.6467   -1.0956 H   0  0  0  0  0  0  0  0  0  0  0  0
    6.5032    1.8382    0.0650 H   0  0  0  0  0  0  0  0  0  0  0  0
    5.1389    4.2524   -1.4154 H   0  0  0  0  0  0  0  0  0  0  0  0
  1  2  1  0  0  0  0
  2  3  4  0  0  0  0
  3  4  4  0  0  0  0
  4  5  4  0  0  0  0
  5  6  1  0  0  0  0
  6  7  2  0  0  0  0
  7  8  1  0  0  0  0
  8  9  4  0  0  0  0
  9 10  2  0  0  0  0
 10 11  4  0  0  0  0
 11 12  4  0  0  0  0
 12 13  1  0  0  0  0
 13 14  2  0  0  0  0
 13 15  2  0  0  0  0
 13 16  1  0  0  0  0
 12 17  4  0  0  0  0
 17 18  4  0  0  0  0
 18 19  1  0  0  0  0
 18 20  4  0  0  0  0
 11 21  4  0  0  0  0
 20 21  4  0  0  0  0
  8 22  4  0  0  0  0
 21 22  4  0  0  0  0
  5 23  4  0  0  0  0
 23 24  4  0  0  0  0
 24 25  2  0  0  0  0
 25 26  4  0  0  0  0
 26 27  2  0  0  0  0
  2 28  4  0  0  0  0
 23 28  4  0  0  0  0
 27 28  4  0  0  0  0
  1 29  1  0  0  0  0
  1 30  1  0  0  0  0
  3 31  1  0  0  0  0
  4 32  1  0  0  0  0
  9 33  1  0  0  0  0
 10 34  1  0  0  0  0
 16 35  1  0  0  0  0
 17 36  1  0  0  0  0
 19 37  1  0  0  0  0
 19 38  1  0  0  0  0
 20 39  1  0  0  0  0
 22 40  1  0  0  0  0
 24 41  1  0  0  0  0
 25 42  1  0  0  0  0
 26 43  1  0  0  0  0
 27 44  1  0  0  0  0
 45 46  1  0  0  0  0
 46 47  1  0  0  0  0
 45 48  1  0  0  0  0
 46 48  1  0  0  0  0
 47 49  1  0  0  0  0
 46 50  1  0  0  0  0
 47 50  1  0  0  0  0
 49 50  1  0  0  0  0
 50 51  1  0  0  0  0
 51 52  1  0  0  0  0
 49 53  1  0  0  0  0
 50 53  1  0  0  0  0
 52 54  1  0  0  0  0
 48 55  1  0  0  0  0
 48 56  1  0  0  0  0
 55 56  1  0  0  0  0
 49 57  1  0  0  0  0
 53 57  1  0  0  0  0
 56 57  1  0  0  0  0
 55 58  1  0  0  0  0
 56 58  1  0  0  0  0
 57 59  1  0  0  0  0
 53 60  1  0  0  0  0
 57 60  1  0  0  0  0
 59 60  1  0  0  0  0
 53 61  1  0  0  0  0
 60 61  1  0  0  0  0
 54 62  1  0  0  0  0
 61 62  1  0  0  0  0
 59 63  1  0  0  0  0
 60 63  1  0  0  0  0
 61 63  1  0  0  0  0
 62 64  1  0  0  0  0
 58 65  1  0  0  0  0
 58 66  1  0  0  0  0
 65 66  1  0  0  0  0
 59 67  1  0  0  0  0
 66 67  1  0  0  0  0
 65 68  1  0  0  0  0
 66 68  1  0  0  0  0
 67 69  1  0  0  0  0
 59 70  1  0  0  0  0
 63 70  1  0  0  0  0
 67 70  1  0  0  0  0
 69 70  1  0  0  0  0
 63 71  1  0  0  0  0
 70 71  1  0  0  0  0
 64 72  1  0  0  0  0
 71 72  1  0  0  0  0
 69 73  1  0  0  0  0
 70 73  1  0  0  0  0
 71 73  1  0  0  0  0
 72 74  1  0  0  0  0
 68 75  1  0  0  0  0
 68 76  1  0  0  0  0
 75 76  1  0  0  0  0
 69 77  1  0  0  0  0
 76 77  1  0  0  0  0
 75 78  1  0  0  0  0
 76 78  1  0  0  0  0
 77 79  1  0  0  0  0
 69 80  1  0  0  0  0
 77 80  1  0  0  0  0
 79 80  1  0  0  0  0
 73 81  1  0  0  0  0
 80 81  1  0  0  0  0
 73 82  1  0  0  0  0
 74 82  1  0  0  0  0
 81 82  1  0  0  0  0
 79 83  1  0  0  0  0
 80 83  1  0  0  0  0
 81 83  1  0  0  0  0
 81 84  1  0  0  0  0
 82 84  1  0  0  0  0
 45 85  1  0  0  0  0
 45 86  1  0  0  0  0
 46 86  1  0  0  0  0
 47 87  1  0  0  0  0
 51 88  1  0  0  0  0
 52 89  1  0  0  0  0
 54 90  1  0  0  0  0
 55 91  1  0  0  0  0
 64 92  1  0  0  0  0
 65 93  1  0  0  0  0
 74 94  1  0  0  0  0
 75 95  1  0  0  0  0
 78 96  1  0  0  0  0
 79 97  1  0  0  0  0
 83 98  1  0  0  0  0
 84 99  1  0  0  0  0
M  END
