 xtb: 6.7.1pre (5071a88)
          09012616343D

104147  0     0  0            999 V2000
    6.7670   -1.9234    8.1957 N   0  0  0  0  0  0  0  0  0  0  0  0
    5.3996   -1.5711    8.1087 C   0  0  0  0  0  0  0  0  0  0  0  0
    4.4825   -2.6262    8.1317 C   0  0  0  0  0  0  0  0  0  0  0  0
    3.1251   -2.3901    7.9485 C   0  0  0  0  0  0  0  0  0  0  0  0
    2.6547   -1.0949    7.7049 C   0  0  0  0  0  0  0  0  0  0  0  0
    1.2716   -0.8959    7.4982 N   0  0  0  0  0  0  0  0  0  0  0  0
    0.6556   -0.9903    8.5834 N   0  0  0  0  0  0  0  0  0  0  0  0
   -0.7187   -0.7616    8.3938 C   0  0  0  0  0  0  0  0  0  0  0  0
   -1.5034   -1.5911    7.5954 C   0  0  0  0  0  0  0  0  0  0  0  0
   -2.8737   -1.3503    7.4518 C   0  0  0  0  0  0  0  0  0  0  0  0
   -3.5143   -0.2684    8.1077 C   0  0  0  0  0  0  0  0  0  0  0  0
   -4.8972    0.0463    8.0318 C   0  0  0  0  0  0  0  0  0  0  0  0
   -6.0105   -0.9123    7.0347 S   0  0  0  0  0  0  0  0  0  0  0  0
   -5.9945   -2.2744    7.5171 O   0  0  0  0  0  0  0  0  0  0  0  0
   -7.2500   -0.1775    6.8862 O   0  0  0  0  0  0  0  0  0  0  0  0
   -5.3626   -0.8941    5.5570 O   0  0  0  0  0  0  0  0  0  0  0  0
   -5.4465    1.1300    8.7366 C   0  0  0  0  0  0  0  0  0  0  0  0
   -4.6344    1.9639    9.4950 C   0  0  0  0  0  0  0  0  0  0  0  0
   -5.1980    2.9657   10.2889 N   0  0  0  0  0  0  0  0  0  0  0  0
   -3.2833    1.6403    9.6207 C   0  0  0  0  0  0  0  0  0  0  0  0
   -2.7095    0.5582    8.9288 C   0  0  0  0  0  0  0  0  0  0  0  0
   -1.3343    0.2972    9.0640 C   0  0  0  0  0  0  0  0  0  0  0  0
    3.5711   -0.0184    7.6004 C   0  0  0  0  0  0  0  0  0  0  0  0
    3.1376    1.2934    7.3015 C   0  0  0  0  0  0  0  0  0  0  0  0
    4.0346    2.3527    7.1762 C   0  0  0  0  0  0  0  0  0  0  0  0
    5.3909    2.1247    7.3452 C   0  0  0  0  0  0  0  0  0  0  0  0
    5.8468    0.8394    7.6457 C   0  0  0  0  0  0  0  0  0  0  0  0
    4.9611   -0.2564    7.7883 C   0  0  0  0  0  0  0  0  0  0  0  0
    7.3456   -1.1636    8.5378 H   0  0  0  0  0  0  0  0  0  0  0  0
    7.1074   -2.2299    7.2861 H   0  0  0  0  0  0  0  0  0  0  0  0
    4.8292   -3.6401    8.3172 H   0  0  0  0  0  0  0  0  0  0  0  0
    2.4232   -3.2185    7.9944 H   0  0  0  0  0  0  0  0  0  0  0  0
   -1.0490   -2.4356    7.0831 H   0  0  0  0  0  0  0  0  0  0  0  0
   -3.4303   -2.0415    6.8217 H   0  0  0  0  0  0  0  0  0  0  0  0
   -6.0353   -0.5214    4.9485 H   0  0  0  0  0  0  0  0  0  0  0  0
   -6.5160    1.3257    8.6939 H   0  0  0  0  0  0  0  0  0  0  0  0
   -4.5524    3.6990   10.5659 H   0  0  0  0  0  0  0  0  0  0  0  0
   -6.0784    3.3365    9.9443 H   0  0  0  0  0  0  0  0  0  0  0  0
   -2.6593    2.2460   10.2760 H   0  0  0  0  0  0  0  0  0  0  0  0
   -0.7167    0.9278    9.7013 H   0  0  0  0  0  0  0  0  0  0  0  0
    2.0778    1.4988    7.1575 H   0  0  0  0  0  0  0  0  0  0  0  0
    3.6704    3.3497    6.9435 H   0  0  0  0  0  0  0  0  0  0  0  0
    6.0984    2.9436    7.2453 H   0  0  0  0  0  0  0  0  0  0  0  0
    6.9181    0.7083    7.7666 H   0  0  0  0  0  0  0  0  0  0  0  0
   -6.9256   -4.6511    0.2587 B   0  0  0  0  0  0  0  0  0  0  0  0
   -5.1098   -2.2493    0.3222 B   0  0  0  0  0  0  0  0  0  0  0  0
   -3.5915   -2.1814    0.2128 B   0  0  0  0  0  0  0  0  0  0  0  0
    0.9993   -2.8754    0.0638 B   0  0  0  0  0  0  0  0  0  0  0  0
    2.4759   -3.0122   -0.2709 B   0  0  0  0  0  0  0  0  0  0  0  0
    5.2994   -3.8314   -0.6672 B   0  0  0  0  0  0  0  0  0  0  0  0
    6.3183   -4.8359   -1.1558 B   0  0  0  0  0  0  0  0  0  0  0  0
   -6.4348   -3.1583    0.2864 B   0  0  0  0  0  0  0  0  0  0  0  0
   -6.7520   -1.6338    0.3164 B   0  0  0  0  0  0  0  0  0  0  0  0
   -2.0526   -2.3173    0.3349 B   0  0  0  0  0  0  0  0  0  0  0  0
   -0.4841   -2.4619    0.2574 B   0  0  0  0  0  0  0  0  0  0  0  0
    4.0184   -2.9011   -0.2872 B   0  0  0  0  0  0  0  0  0  0  0  0
    5.7532   -2.2815   -0.3028 B   0  0  0  0  0  0  0  0  0  0  0  0
    6.8301   -3.2288   -1.0929 B   0  0  0  0  0  0  0  0  0  0  0  0
   -7.6564   -0.2550    0.3431 B   0  0  0  0  0  0  0  0  0  0  0  0
   -6.0374   -0.1395    0.1913 B   0  0  0  0  0  0  0  0  0  0  0  0
   -4.4316   -0.5357    0.2239 B   0  0  0  0  0  0  0  0  0  0  0  0
   -2.7379   -0.6604    0.3290 B   0  0  0  0  0  0  0  0  0  0  0  0
   -1.0518   -0.9157    0.6419 B   0  0  0  0  0  0  0  0  0  0  0  0
    0.5171   -1.1722    0.7257 B   0  0  0  0  0  0  0  0  0  0  0  0
    3.1231   -1.4831   -0.0635 B   0  0  0  0  0  0  0  0  0  0  0  0
    4.7001   -1.1340    0.3402 B   0  0  0  0  0  0  0  0  0  0  0  0
    6.2667   -0.7872    0.2517 B   0  0  0  0  0  0  0  0  0  0  0  0
    7.6720   -0.3517    1.0327 B   0  0  0  0  0  0  0  0  0  0  0  0
   -6.9181    1.2121    0.1915 B   0  0  0  0  0  0  0  0  0  0  0  0
   -3.4184    0.7801    0.0809 B   0  0  0  0  0  0  0  0  0  0  0  0
   -1.6542    0.5326    0.1239 B   0  0  0  0  0  0  0  0  0  0  0  0
    1.8622   -0.4037    0.3246 B   0  0  0  0  0  0  0  0  0  0  0  0
    3.5847   -0.1504    0.7852 B   0  0  0  0  0  0  0  0  0  0  0  0
    6.9910    0.6111   -0.1068 B   0  0  0  0  0  0  0  0  0  0  0  0
    8.3074    1.0629    0.6316 B   0  0  0  0  0  0  0  0  0  0  0  0
   -7.6194    2.8040    0.2986 B   0  0  0  0  0  0  0  0  0  0  0  0
   -6.1238    2.5185   -0.1765 B   0  0  0  0  0  0  0  0  0  0  0  0
   -3.5886    2.3277   -0.2368 B   0  0  0  0  0  0  0  0  0  0  0  0
   -0.9061    1.8195   -0.4198 B   0  0  0  0  0  0  0  0  0  0  0  0
    1.6234    1.0199   -0.4108 B   0  0  0  0  0  0  0  0  0  0  0  0
    3.0108    1.3090    0.5297 B   0  0  0  0  0  0  0  0  0  0  0  0
    6.3729    1.8582   -0.9160 B   0  0  0  0  0  0  0  0  0  0  0  0
   -6.5277    4.0456   -0.1608 B   0  0  0  0  0  0  0  0  0  0  0  0
   -4.8736    3.4948   -0.3884 B   0  0  0  0  0  0  0  0  0  0  0  0
   -3.4155    3.8801   -0.6064 B   0  0  0  0  0  0  0  0  0  0  0  0
   -2.0235    3.2206   -0.6767 B   0  0  0  0  0  0  0  0  0  0  0  0
   -0.4974    3.2796   -0.8970 B   0  0  0  0  0  0  0  0  0  0  0  0
    0.7107    2.3324   -0.7457 B   0  0  0  0  0  0  0  0  0  0  0  0
    2.3353    2.4781   -0.4754 B   0  0  0  0  0  0  0  0  0  0  0  0
    3.8161    2.6195   -0.0941 B   0  0  0  0  0  0  0  0  0  0  0  0
    5.3698    2.8646   -0.1489 B   0  0  0  0  0  0  0  0  0  0  0  0
    6.0551    4.0800    0.6312 B   0  0  0  0  0  0  0  0  0  0  0  0
    6.2041    5.1477    0.1463 H   0  0  0  0  0  0  0  0  0  0  0  0
    8.2184   -1.1210    1.7268 H   0  0  0  0  0  0  0  0  0  0  0  0
    6.6224    1.9818   -2.0674 H   0  0  0  0  0  0  0  0  0  0  0  0
   -7.0900   -5.2506   -0.7538 H   0  0  0  0  0  0  0  0  0  0  0  0
   -6.7912    5.1815   -0.2852 H   0  0  0  0  0  0  0  0  0  0  0  0
    9.1569    1.8466    0.7900 H   0  0  0  0  0  0  0  0  0  0  0  0
   -8.8277   -0.3758    0.3286 H   0  0  0  0  0  0  0  0  0  0  0  0
    6.7839   -5.8690   -1.4465 H   0  0  0  0  0  0  0  0  0  0  0  0
   -8.7247    3.0012    0.6388 H   0  0  0  0  0  0  0  0  0  0  0  0
    7.8918   -2.8835   -1.4737 H   0  0  0  0  0  0  0  0  0  0  0  0
    6.4282    3.9996    1.7485 H   0  0  0  0  0  0  0  0  0  0  0  0
   -7.2249   -5.2823    1.2187 H   0  0  0  0  0  0  0  0  0  0  0  0
  1  2  1  0  0  0  0
  2  3  4  0  0  0  0
  3  4  4  0  0  0  0
  4  5  4  0  0  0  0
  5  6  1  0  0  0  0
  6  7  2  0  0  0  0
  7  8  1  0  0  0  0
  8  9  4  0  0  0  0
  9 10  2  0  0  0  0
 10 11  4  0  0  0  0
 11 12  4  0  0  0  0
 12 13  1  0  0  0  0
 13 14  2  0  0  0  0
 13 15  2  0  0  0  0
 13 16  1  0  0  0  0
 12 17  4  0  0  0  0
 17 18  4  0  0  0  0
 18 19  1  0  0  0  0
 18 20  4  0  0  0  0
 11 21  4  0  0  0  0
 20 21  4  0  0  0  0
  8 22  4  0  0  0  0
 21 22  4  0  0  0  0
  5 23  4  0  0  0  0
 23 24  4  0  0  0  0
 24 25  2  0  0  0  0
 25 26  4  0  0  0  0
 26 27  2  0  0  0  0
  2 28  4  0  0  0  0
 23 28  4  0  0  0  0
 27 28  4  0  0  0  0
  1 29  1  0  0  0  0
  1 30  1  0  0  0  0
  3 31  1  0  0  0  0
  4 32  1  0  0  0  0
  9 33  1  0  0  0  0
 10 34  1  0  0  0  0
 16 35  1  0  0  0  0
 17 36  1  0  0  0  0
 19 37  1  0  0  0  0
 19 38  1  0  0  0  0
 20 39  1  0  0  0  0
 22 40  1  0  0  0  0
 24 41  1  0  0  0  0
 25 42  1  0  0  0  0
 26 43  1  0  0  0  0
 27 44  1  0  0  0  0
 46 47  1  0  0  0  0
 48 49  2  0  0  0  0
 50 51  2  0  0  0  0
 45 52  1  0  0  0  0
 46 52  1  0  0  0  0
 46 53  1  0  0  0  0
 52 53  1  0  0  0  0
 47 54  1  0  0  0  0
 48 55  1  0  0  0  0
 54 55  1  0  0  0  0
 49 56  1  0  0  0  0
 50 56  1  0  0  0  0
 50 57  1  0  0  0  0
 56 57  1  0  0  0  0
 50 58  1  0  0  0  0
 51 58  1  0  0  0  0
 57 58  1  0  0  0  0
 53 59  1  0  0  0  0
 53 60  1  0  0  0  0
 59 60  1  0  0  0  0
 46 61  1  0  0  0  0
 47 61  1  0  0  0  0
 60 61  1  0  0  0  0
 47 62  1  0  0  0  0
 54 62  1  0  0  0  0
 61 62  1  0  0  0  0
 54 63  1  0  0  0  0
 55 63  1  0  0  0  0
 62 63  1  0  0  0  0
 48 64  1  0  0  0  0
 55 64  1  0  0  0  0
 63 64  1  0  0  0  0
 49 65  1  0  0  0  0
 56 65  1  0  0  0  0
 56 66  1  0  0  0  0
 57 66  1  0  0  0  0
 65 66  1  0  0  0  0
 57 67  1  0  0  0  0
 66 67  1  0  0  0  0
 67 68  1  0  0  0  0
 59 69  1  0  0  0  0
 60 69  1  0  0  0  0
 61 70  1  0  0  0  0
 62 70  1  0  0  0  0
 62 71  1  0  0  0  0
 63 71  1  0  0  0  0
 70 71  1  0  0  0  0
 64 72  1  0  0  0  0
 65 72  1  0  0  0  0
 65 73  1  0  0  0  0
 66 73  1  0  0  0  0
 72 73  1  0  0  0  0
 67 74  1  0  0  0  0
 68 74  1  0  0  0  0
 68 75  1  0  0  0  0
 74 75  1  0  0  0  0
 69 76  1  0  0  0  0
 69 77  1  0  0  0  0
 76 77  1  0  0  0  0
 70 78  1  0  0  0  0
 71 79  1  0  0  0  0
 72 80  1  0  0  0  0
 73 81  1  0  0  0  0
 80 81  1  0  0  0  0
 74 82  1  0  0  0  0
 76 83  1  0  0  0  0
 77 83  1  0  0  0  0
 77 84  1  0  0  0  0
 78 84  1  0  0  0  0
 83 84  1  0  0  0  0
 78 85  1  0  0  0  0
 84 85  1  0  0  0  0
 78 86  1  0  0  0  0
 79 86  1  0  0  0  0
 85 86  1  0  0  0  0
 79 87  1  0  0  0  0
 86 87  1  0  0  0  0
 79 88  1  0  0  0  0
 80 88  1  0  0  0  0
 87 88  1  0  0  0  0
 80 89  1  0  0  0  0
 81 89  1  0  0  0  0
 88 89  1  0  0  0  0
 81 90  1  0  0  0  0
 89 90  1  0  0  0  0
 82 91  1  0  0  0  0
 90 91  1  0  0  0  0
 91 92  1  0  0  0  0
 92 93  1  0  0  0  0
 68 94  1  0  0  0  0
 82 95  1  0  0  0  0
 45 96  1  0  0  0  0
 83 97  1  0  0  0  0
 75 98  1  0  0  0  0
 59 99  1  0  0  0  0
 51100  1  0  0  0  0
 76101  1  0  0  0  0
 58102  1  0  0  0  0
 92103  1  0  0  0  0
 45104  1  0  0  0  0
M  END
