 xtb: 6.7.1pre (5071a88)
          08312620193D

104135  0     0  0            999 V2000
    6.7670   -1.9234    3.7287 N   0  0  0  0  0  0  0  0  0  0  0  0
    5.3996   -1.5711    3.6418 C   0  0  0  0  0  0  0  0  0  0  0  0
    4.4825   -2.6262    3.6647 C   0  0  0  0  0  0  0  0  0  0  0  0
    3.1251   -2.3901    3.4815 C   0  0  0  0  0  0  0  0  0  0  0  0
    2.6547   -1.0949    3.2380 C   0  0  0  0  0  0  0  0  0  0  0  0
    1.2716   -0.8959    3.0312 N   0  0  0  0  0  0  0  0  0  0  0  0
    0.6556   -0.9903    4.1165 N   0  0  0  0  0  0  0  0  0  0  0  0
   -0.7187   -0.7616    3.9268 C   0  0  0  0  0  0  0  0  0  0  0  0
   -1.5034   -1.5911    3.1285 C   0  0  0  0  0  0  0  0  0  0  0  0
   -2.8737   -1.3503    2.9848 C   0  0  0  0  0  0  0  0  0  0  0  0
   -3.5143   -0.2684    3.6408 C   0  0  0  0  0  0  0  0  0  0  0  0
   -4.8972    0.0463    3.5648 C   0  0  0  0  0  0  0  0  0  0  0  0
   -6.0105   -0.9123    2.5678 S   0  0  0  0  0  0  0  0  0  0  0  0
   -5.9945   -2.2744    3.0502 O   0  0  0  0  0  0  0  0  0  0  0  0
   -7.2500   -0.1775    2.4193 O   0  0  0  0  0  0  0  0  0  0  0  0
   -5.3626   -0.8941    1.0901 O   0  0  0  0  0  0  0  0  0  0  0  0
   -5.4465    1.1300    4.2697 C   0  0  0  0  0  0  0  0  0  0  0  0
   -4.6344    1.9639    5.0280 C   0  0  0  0  0  0  0  0  0  0  0  0
   -5.1980    2.9657    5.8220 N   0  0  0  0  0  0  0  0  0  0  0  0
   -3.2833    1.6403    5.1537 C   0  0  0  0  0  0  0  0  0  0  0  0
   -2.7095    0.5582    4.4618 C   0  0  0  0  0  0  0  0  0  0  0  0
   -1.3343    0.2972    4.5971 C   0  0  0  0  0  0  0  0  0  0  0  0
    3.5711   -0.0184    3.1335 C   0  0  0  0  0  0  0  0  0  0  0  0
    3.1376    1.2934    2.8345 C   0  0  0  0  0  0  0  0  0  0  0  0
    4.0346    2.3527    2.7093 C   0  0  0  0  0  0  0  0  0  0  0  0
    5.3909    2.1247    2.8782 C   0  0  0  0  0  0  0  0  0  0  0  0
    5.8468    0.8394    3.1787 C   0  0  0  0  0  0  0  0  0  0  0  0
    4.9611   -0.2564    3.3214 C   0  0  0  0  0  0  0  0  0  0  0  0
    7.3456   -1.1636    4.0708 H   0  0  0  0  0  0  0  0  0  0  0  0
    7.1074   -2.2299    2.8191 H   0  0  0  0  0  0  0  0  0  0  0  0
    4.8292   -3.6401    3.8502 H   0  0  0  0  0  0  0  0  0  0  0  0
    2.4232   -3.2185    3.5274 H   0  0  0  0  0  0  0  0  0  0  0  0
   -1.0490   -2.4356    2.6162 H   0  0  0  0  0  0  0  0  0  0  0  0
   -3.4303   -2.0415    2.3548 H   0  0  0  0  0  0  0  0  0  0  0  0
   -6.0353   -0.5214    0.4815 H   0  0  0  0  0  0  0  0  0  0  0  0
   -6.5160    1.3257    4.2269 H   0  0  0  0  0  0  0  0  0  0  0  0
   -4.5524    3.6990    6.0990 H   0  0  0  0  0  0  0  0  0  0  0  0
   -6.0784    3.3365    5.4773 H   0  0  0  0  0  0  0  0  0  0  0  0
   -2.6593    2.2460    5.8091 H   0  0  0  0  0  0  0  0  0  0  0  0
   -0.7167    0.9278    5.2343 H   0  0  0  0  0  0  0  0  0  0  0  0
    2.0778    1.4988    2.6905 H   0  0  0  0  0  0  0  0  0  0  0  0
    3.6704    3.3497    2.4766 H   0  0  0  0  0  0  0  0  0  0  0  0
    6.0984    2.9436    2.7783 H   0  0  0  0  0  0  0  0  0  0  0  0
    6.9181    0.7083    3.2996 H   0  0  0  0  0  0  0  0  0  0  0  0
   -7.5000   -4.5000    0.0000 B   0  0  0  0  0  0  0  0  0  0  0  0
   -4.5000   -4.5000    0.0000 B   0  0  0  0  0  0  0  0  0  0  0  0
   -1.5000   -4.5000    0.0000 B   0  0  0  0  0  0  0  0  0  0  0  0
    1.5000   -4.5000    0.0000 B   0  0  0  0  0  0  0  0  0  0  0  0
    4.5000   -4.5000    0.0000 B   0  0  0  0  0  0  0  0  0  0  0  0
    7.5000   -4.5000    0.0000 B   0  0  0  0  0  0  0  0  0  0  0  0
   -7.5000   -3.0000    0.0000 B   0  0  0  0  0  0  0  0  0  0  0  0
   -4.5000   -3.0000    0.0000 B   0  0  0  0  0  0  0  0  0  0  0  0
   -1.5000   -3.0000    0.0000 B   0  0  0  0  0  0  0  0  0  0  0  0
    1.5000   -3.0000    0.0000 B   0  0  0  0  0  0  0  0  0  0  0  0
    4.5000   -3.0000    0.0000 B   0  0  0  0  0  0  0  0  0  0  0  0
    7.5000   -3.0000    0.0000 B   0  0  0  0  0  0  0  0  0  0  0  0
   -7.5000   -1.5000    0.0000 B   0  0  0  0  0  0  0  0  0  0  0  0
   -4.5000   -1.5000    0.0000 B   0  0  0  0  0  0  0  0  0  0  0  0
   -1.5000   -1.5000    0.0000 B   0  0  0  0  0  0  0  0  0  0  0  0
    1.5000   -1.5000    0.0000 B   0  0  0  0  0  0  0  0  0  0  0  0
    4.5000   -1.5000    0.0000 B   0  0  0  0  0  0  0  0  0  0  0  0
    7.5000   -1.5000    0.0000 B   0  0  0  0  0  0  0  0  0  0  0  0
   -7.5000    0.0000    0.0000 B   0  0  0  0  0  0  0  0  0  0  0  0
   -4.5000    0.0000    0.0000 B   0  0  0  0  0  0  0  0  0  0  0  0
   -1.5000    0.0000    0.0000 B   0  0  0  0  0  0  0  0  0  0  0  0
    1.5000    0.0000    0.0000 B   0  0  0  0  0  0  0  0  0  0  0  0
    4.5000    0.0000    0.0000 B   0  0  0  0  0  0  0  0  0  0  0  0
    7.5000    0.0000    0.0000 B   0  0  0  0  0  0  0  0  0  0  0  0
   -7.5000    1.5000    0.0000 B   0  0  0  0  0  0  0  0  0  0  0  0
   -4.5000    1.5000    0.0000 B   0  0  0  0  0  0  0  0  0  0  0  0
   -1.5000    1.5000    0.0000 B   0  0  0  0  0  0  0  0  0  0  0  0
    1.5000    1.5000    0.0000 B   0  0  0  0  0  0  0  0  0  0  0  0
    4.5000    1.5000    0.0000 B   0  0  0  0  0  0  0  0  0  0  0  0
    7.5000    1.5000    0.0000 B   0  0  0  0  0  0  0  0  0  0  0  0
   -7.5000    3.0000    0.0000 B   0  0  0  0  0  0  0  0  0  0  0  0
   -4.5000    3.0000    0.0000 B   0  0  0  0  0  0  0  0  0  0  0  0
   -1.5000    3.0000    0.0000 B   0  0  0  0  0  0  0  0  0  0  0  0
    1.5000    3.0000    0.0000 B   0  0  0  0  0  0  0  0  0  0  0  0
    4.5000    3.0000    0.0000 B   0  0  0  0  0  0  0  0  0  0  0  0
    7.5000    3.0000    0.0000 B   0  0  0  0  0  0  0  0  0  0  0  0
   -7.5000    4.5000    0.0000 B   0  0  0  0  0  0  0  0  0  0  0  0
   -4.5000    4.5000    0.0000 B   0  0  0  0  0  0  0  0  0  0  0  0
   -1.5000    4.5000    0.0000 B   0  0  0  0  0  0  0  0  0  0  0  0
    1.5000    4.5000    0.0000 B   0  0  0  0  0  0  0  0  0  0  0  0
    4.5000    4.5000    0.0000 B   0  0  0  0  0  0  0  0  0  0  0  0
    7.5000    4.5000    0.0000 B   0  0  0  0  0  0  0  0  0  0  0  0
   -6.0000   -3.7500    0.0000 B   0  0  0  0  0  0  0  0  0  0  0  0
   -3.0000   -3.7500    0.0000 B   0  0  0  0  0  0  0  0  0  0  0  0
    0.0000   -3.7500    0.0000 B   0  0  0  0  0  0  0  0  0  0  0  0
    3.0000   -3.7500    0.0000 B   0  0  0  0  0  0  0  0  0  0  0  0
    6.0000   -3.7500    0.0000 B   0  0  0  0  0  0  0  0  0  0  0  0
   -6.0000    3.7500    0.0000 B   0  0  0  0  0  0  0  0  0  0  0  0
   -3.0000    3.7500    0.0000 B   0  0  0  0  0  0  0  0  0  0  0  0
    0.0000    3.7500    0.0000 B   0  0  0  0  0  0  0  0  0  0  0  0
    3.0000    3.7500    0.0000 B   0  0  0  0  0  0  0  0  0  0  0  0
    6.0000    3.7500    0.0000 B   0  0  0  0  0  0  0  0  0  0  0  0
   -6.0000    0.0000    0.0000 B   0  0  0  0  0  0  0  0  0  0  0  0
   -8.6000   -4.5000    0.0000 H   0  0  0  0  0  0  0  0  0  0  0  0
   -8.6000   -1.5000    0.0000 H   0  0  0  0  0  0  0  0  0  0  0  0
   -8.6000    1.5000    0.0000 H   0  0  0  0  0  0  0  0  0  0  0  0
   -8.6000    4.5000    0.0000 H   0  0  0  0  0  0  0  0  0  0  0  0
    8.6000   -4.5000    0.0000 H   0  0  0  0  0  0  0  0  0  0  0  0
    8.6000   -1.5000    0.0000 H   0  0  0  0  0  0  0  0  0  0  0  0
    8.6000    1.5000    0.0000 H   0  0  0  0  0  0  0  0  0  0  0  0
  1  2  1  0  0  0  0
  2  3  4  0  0  0  0
  3  4  4  0  0  0  0
  4  5  4  0  0  0  0
  5  6  1  0  0  0  0
  6  7  2  0  0  0  0
  7  8  1  0  0  0  0
  8  9  4  0  0  0  0
  9 10  4  0  0  0  0
 10 11  4  0  0  0  0
 11 12  4  0  0  0  0
 12 13  1  0  0  0  0
 13 14  2  0  0  0  0
 13 15  2  0  0  0  0
 13 16  1  0  0  0  0
 12 17  4  0  0  0  0
 17 18  4  0  0  0  0
 18 19  1  0  0  0  0
 18 20  4  0  0  0  0
 11 21  4  0  0  0  0
 20 21  4  0  0  0  0
  8 22  4  0  0  0  0
 21 22  4  0  0  0  0
  5 23  4  0  0  0  0
 23 24  4  0  0  0  0
 24 25  4  0  0  0  0
 25 26  4  0  0  0  0
 26 27  2  0  0  0  0
  2 28  4  0  0  0  0
 23 28  4  0  0  0  0
 27 28  4  0  0  0  0
  1 29  1  0  0  0  0
  1 30  1  0  0  0  0
  3 31  1  0  0  0  0
  4 32  1  0  0  0  0
  9 33  1  0  0  0  0
 10 34  1  0  0  0  0
 16 35  1  0  0  0  0
 17 36  1  0  0  0  0
 19 37  1  0  0  0  0
 19 38  1  0  0  0  0
 20 39  1  0  0  0  0
 22 40  1  0  0  0  0
 24 41  1  0  0  0  0
 25 42  1  0  0  0  0
 26 43  1  0  0  0  0
 27 44  1  0  0  0  0
 45 51  1  0  0  0  0
 46 52  1  0  0  0  0
 47 53  1  0  0  0  0
 48 54  1  0  0  0  0
 49 55  1  0  0  0  0
 50 56  1  0  0  0  0
 51 57  1  0  0  0  0
 16 58  1  0  0  0  0
 52 58  1  0  0  0  0
 53 59  1  0  0  0  0
 54 60  1  0  0  0  0
 55 61  1  0  0  0  0
 56 62  1  0  0  0  0
 57 63  1  0  0  0  0
 58 64  1  0  0  0  0
 59 65  2  0  0  0  0
 60 66  2  0  0  0  0
 61 67  2  0  0  0  0
 62 68  1  0  0  0  0
 63 69  1  0  0  0  0
 64 70  1  0  0  0  0
 65 71  2  0  0  0  0
 66 72  2  0  0  0  0
 67 73  2  0  0  0  0
 68 74  2  0  0  0  0
 69 75  1  0  0  0  0
 70 76  1  0  0  0  0
 71 77  1  0  0  0  0
 72 78  1  0  0  0  0
 73 79  1  0  0  0  0
 74 80  1  0  0  0  0
 75 81  1  0  0  0  0
 76 82  1  0  0  0  0
 77 83  1  0  0  0  0
 78 84  1  0  0  0  0
 79 85  1  0  0  0  0
 80 86  2  0  0  0  0
 45 87  1  0  0  0  0
 46 87  1  0  0  0  0
 51 87  1  0  0  0  0
 52 87  1  0  0  0  0
 46 88  1  0  0  0  0
 47 88  1  0  0  0  0
 52 88  1  0  0  0  0
 53 88  1  0  0  0  0
 47 89  1  0  0  0  0
 48 89  1  0  0  0  0
 53 89  1  0  0  0  0
 54 89  1  0  0  0  0
 48 90  1  0  0  0  0
 49 90  1  0  0  0  0
 54 90  1  0  0  0  0
 55 90  1  0  0  0  0
 49 91  1  0  0  0  0
 50 91  1  0  0  0  0
 55 91  1  0  0  0  0
 56 91  1  0  0  0  0
 75 92  1  0  0  0  0
 76 92  1  0  0  0  0
 81 92  1  0  0  0  0
 82 92  1  0  0  0  0
 76 93  1  0  0  0  0
 77 93  1  0  0  0  0
 82 93  1  0  0  0  0
 83 93  1  0  0  0  0
 77 94  1  0  0  0  0
 78 94  1  0  0  0  0
 83 94  1  0  0  0  0
 84 94  1  0  0  0  0
 78 95  1  0  0  0  0
 79 95  1  0  0  0  0
 84 95  1  0  0  0  0
 85 95  1  0  0  0  0
 79 96  1  0  0  0  0
 80 96  1  0  0  0  0
 85 96  1  0  0  0  0
 86 96  1  0  0  0  0
 16 97  1  0  0  0  0
 63 97  1  0  0  0  0
 64 97  1  0  0  0  0
 69 97  1  0  0  0  0
 45 98  1  0  0  0  0
 57 99  1  0  0  0  0
 69100  1  0  0  0  0
 81101  1  0  0  0  0
 50102  1  0  0  0  0
 62103  1  0  0  0  0
 74104  1  0  0  0  0
M  END
