 xtb: 6.7.1pre (5071a88)
          08312622043D

104160  0     0  0            999 V2000
    6.7670   -1.9234    8.6576 N   0  0  0  0  0  0  0  0  0  0  0  0
    5.3996   -1.5711    8.5706 C   0  0  0  0  0  0  0  0  0  0  0  0
    4.4825   -2.6262    8.5936 C   0  0  0  0  0  0  0  0  0  0  0  0
    3.1251   -2.3901    8.4104 C   0  0  0  0  0  0  0  0  0  0  0  0
    2.6547   -1.0949    8.1669 C   0  0  0  0  0  0  0  0  0  0  0  0
    1.2716   -0.8959    7.9601 N   0  0  0  0  0  0  0  0  0  0  0  0
    0.6556   -0.9903    9.0453 N   0  0  0  0  0  0  0  0  0  0  0  0
   -0.7187   -0.7616    8.8557 C   0  0  0  0  0  0  0  0  0  0  0  0
   -1.5034   -1.5911    8.0573 C   0  0  0  0  0  0  0  0  0  0  0  0
   -2.8737   -1.3503    7.9137 C   0  0  0  0  0  0  0  0  0  0  0  0
   -3.5143   -0.2684    8.5696 C   0  0  0  0  0  0  0  0  0  0  0  0
   -4.8972    0.0463    8.4937 C   0  0  0  0  0  0  0  0  0  0  0  0
   -6.0105   -0.9123    7.4967 S   0  0  0  0  0  0  0  0  0  0  0  0
   -5.9945   -2.2744    7.9791 O   0  0  0  0  0  0  0  0  0  0  0  0
   -7.2500   -0.1775    7.3482 O   0  0  0  0  0  0  0  0  0  0  0  0
   -5.3626   -0.8941    6.0190 O   0  0  0  0  0  0  0  0  0  0  0  0
   -5.4465    1.1300    9.1985 C   0  0  0  0  0  0  0  0  0  0  0  0
   -4.6344    1.9639    9.9569 C   0  0  0  0  0  0  0  0  0  0  0  0
   -5.1980    2.9657   10.7508 N   0  0  0  0  0  0  0  0  0  0  0  0
   -3.2833    1.6403   10.0826 C   0  0  0  0  0  0  0  0  0  0  0  0
   -2.7095    0.5582    9.3907 C   0  0  0  0  0  0  0  0  0  0  0  0
   -1.3343    0.2972    9.5259 C   0  0  0  0  0  0  0  0  0  0  0  0
    3.5711   -0.0184    8.0623 C   0  0  0  0  0  0  0  0  0  0  0  0
    3.1376    1.2934    7.7634 C   0  0  0  0  0  0  0  0  0  0  0  0
    4.0346    2.3527    7.6382 C   0  0  0  0  0  0  0  0  0  0  0  0
    5.3909    2.1247    7.8071 C   0  0  0  0  0  0  0  0  0  0  0  0
    5.8468    0.8394    8.1076 C   0  0  0  0  0  0  0  0  0  0  0  0
    4.9611   -0.2564    8.2502 C   0  0  0  0  0  0  0  0  0  0  0  0
    7.3456   -1.1636    8.9997 H   0  0  0  0  0  0  0  0  0  0  0  0
    7.1074   -2.2299    7.7480 H   0  0  0  0  0  0  0  0  0  0  0  0
    4.8292   -3.6401    8.7791 H   0  0  0  0  0  0  0  0  0  0  0  0
    2.4232   -3.2185    8.4563 H   0  0  0  0  0  0  0  0  0  0  0  0
   -1.0490   -2.4356    7.5450 H   0  0  0  0  0  0  0  0  0  0  0  0
   -3.4303   -2.0415    7.2837 H   0  0  0  0  0  0  0  0  0  0  0  0
   -6.0353   -0.5214    5.4104 H   0  0  0  0  0  0  0  0  0  0  0  0
   -6.5160    1.3257    9.1558 H   0  0  0  0  0  0  0  0  0  0  0  0
   -4.5524    3.6990   11.0279 H   0  0  0  0  0  0  0  0  0  0  0  0
   -6.0784    3.3365   10.4062 H   0  0  0  0  0  0  0  0  0  0  0  0
   -2.6593    2.2460   10.7379 H   0  0  0  0  0  0  0  0  0  0  0  0
   -0.7167    0.9278   10.1632 H   0  0  0  0  0  0  0  0  0  0  0  0
    2.0778    1.4988    7.6194 H   0  0  0  0  0  0  0  0  0  0  0  0
    3.6704    3.3497    7.4054 H   0  0  0  0  0  0  0  0  0  0  0  0
    6.0984    2.9436    7.7072 H   0  0  0  0  0  0  0  0  0  0  0  0
    6.9181    0.7083    8.2285 H   0  0  0  0  0  0  0  0  0  0  0  0
   -6.3511   -2.8545   -0.3396 B   0  0  0  0  0  0  0  0  0  0  0  0
   -3.8632   -3.4276    0.8712 B   0  0  0  0  0  0  0  0  0  0  0  0
   -1.0552   -4.1651    1.9793 B   0  0  0  0  0  0  0  0  0  0  0  0
    1.6853   -4.2318    1.3549 B   0  0  0  0  0  0  0  0  0  0  0  0
    2.9703   -3.6923    0.6219 B   0  0  0  0  0  0  0  0  0  0  0  0
    5.9076   -3.8486   -0.3800 B   0  0  0  0  0  0  0  0  0  0  0  0
   -4.7612   -2.3307   -0.4078 B   0  0  0  0  0  0  0  0  0  0  0  0
   -2.6199   -2.2111    0.8442 B   0  0  0  0  0  0  0  0  0  0  0  0
   -1.2327   -2.3911    1.7792 B   0  0  0  0  0  0  0  0  0  0  0  0
    0.2814   -3.1446    1.2586 B   0  0  0  0  0  0  0  0  0  0  0  0
    3.1280   -2.1353    0.0337 B   0  0  0  0  0  0  0  0  0  0  0  0
    5.2824   -2.5807   -1.1427 B   0  0  0  0  0  0  0  0  0  0  0  0
   -4.3827   -1.0545   -1.3461 B   0  0  0  0  0  0  0  0  0  0  0  0
   -3.1924   -1.2685   -0.2398 B   0  0  0  0  0  0  0  0  0  0  0  0
   -0.7667   -0.9151    2.1471 B   0  0  0  0  0  0  0  0  0  0  0  0
    0.4341   -1.5098    0.8825 B   0  0  0  0  0  0  0  0  0  0  0  0
    4.2603   -1.2719   -0.6057 B   0  0  0  0  0  0  0  0  0  0  0  0
    6.8452   -2.4756   -0.8065 B   0  0  0  0  0  0  0  0  0  0  0  0
   -5.0072   -0.6437   -2.8496 B   0  0  0  0  0  0  0  0  0  0  0  0
   -3.1952    0.1543   -0.9257 B   0  0  0  0  0  0  0  0  0  0  0  0
   -0.9469    0.6233    2.2104 B   0  0  0  0  0  0  0  0  0  0  0  0
    0.0016   -0.0204    0.9084 B   0  0  0  0  0  0  0  0  0  0  0  0
    4.8754    0.2242   -0.5476 B   0  0  0  0  0  0  0  0  0  0  0  0
    5.8786   -1.0664   -1.1306 B   0  0  0  0  0  0  0  0  0  0  0  0
   -5.7672    0.8535   -2.9176 B   0  0  0  0  0  0  0  0  0  0  0  0
   -2.8971    1.6282   -0.7083 B   0  0  0  0  0  0  0  0  0  0  0  0
   -1.2399    2.1332    2.0889 B   0  0  0  0  0  0  0  0  0  0  0  0
    0.1883    1.5499    1.0540 B   0  0  0  0  0  0  0  0  0  0  0  0
    4.2581    1.5841    0.0647 B   0  0  0  0  0  0  0  0  0  0  0  0
    6.3075    0.4397   -1.6258 B   0  0  0  0  0  0  0  0  0  0  0  0
   -5.7341    1.7554   -1.4938 B   0  0  0  0  0  0  0  0  0  0  0  0
   -3.3469    2.9740   -0.1746 B   0  0  0  0  0  0  0  0  0  0  0  0
   -1.6646    3.6160    1.7973 B   0  0  0  0  0  0  0  0  0  0  0  0
   -0.0590    3.1640    1.3235 B   0  0  0  0  0  0  0  0  0  0  0  0
    2.9656    2.2589    0.6844 B   0  0  0  0  0  0  0  0  0  0  0  0
    5.7919    1.6725   -0.6985 B   0  0  0  0  0  0  0  0  0  0  0  0
   -6.6389    2.8000   -0.8422 B   0  0  0  0  0  0  0  0  0  0  0  0
   -4.4746    3.8873    0.5879 B   0  0  0  0  0  0  0  0  0  0  0  0
   -1.7771    5.1752    1.2154 B   0  0  0  0  0  0  0  0  0  0  0  0
    1.1754    4.4066    1.3290 B   0  0  0  0  0  0  0  0  0  0  0  0
    2.5938    3.9229    0.8796 B   0  0  0  0  0  0  0  0  0  0  0  0
    5.3509    2.9860   -0.0541 B   0  0  0  0  0  0  0  0  0  0  0  0
   -5.3190   -3.6348    0.4165 B   0  0  0  0  0  0  0  0  0  0  0  0
   -2.4877   -3.6329    1.6055 B   0  0  0  0  0  0  0  0  0  0  0  0
    0.3596   -4.7213    1.9063 B   0  0  0  0  0  0  0  0  0  0  0  0
    1.7215   -2.4162    0.7345 B   0  0  0  0  0  0  0  0  0  0  0  0
    4.3387   -3.4800   -0.0729 B   0  0  0  0  0  0  0  0  0  0  0  0
   -5.0953    2.8472   -0.3735 B   0  0  0  0  0  0  0  0  0  0  0  0
   -3.0345    4.3187    0.9326 B   0  0  0  0  0  0  0  0  0  0  0  0
   -0.2869    4.8951    1.4426 B   0  0  0  0  0  0  0  0  0  0  0  0
    1.4616    2.5482    0.9924 B   0  0  0  0  0  0  0  0  0  0  0  0
    4.0784    3.6198    0.5106 B   0  0  0  0  0  0  0  0  0  0  0  0
   -4.5957    0.5913   -1.8415 B   0  0  0  0  0  0  0  0  0  0  0  0
   -7.3684   -2.5027   -0.8103 H   0  0  0  0  0  0  0  0  0  0  0  0
   -4.9591   -1.3760   -3.7739 H   0  0  0  0  0  0  0  0  0  0  0  0
   -6.3246    1.2608   -3.8715 H   0  0  0  0  0  0  0  0  0  0  0  0
   -7.6134    3.4017   -0.5976 H   0  0  0  0  0  0  0  0  0  0  0  0
    6.3612   -4.9354   -0.3602 H   0  0  0  0  0  0  0  0  0  0  0  0
    8.0163   -2.4682   -0.9061 H   0  0  0  0  0  0  0  0  0  0  0  0
    6.9392    0.6146   -2.6128 H   0  0  0  0  0  0  0  0  0  0  0  0
  1  2  1  0  0  0  0
  2  3  4  0  0  0  0
  3  4  4  0  0  0  0
  4  5  4  0  0  0  0
  5  6  1  0  0  0  0
  6  7  2  0  0  0  0
  7  8  1  0  0  0  0
  8  9  4  0  0  0  0
  9 10  2  0  0  0  0
 10 11  4  0  0  0  0
 11 12  4  0  0  0  0
 12 13  1  0  0  0  0
 13 14  2  0  0  0  0
 13 15  2  0  0  0  0
 13 16  1  0  0  0  0
 12 17  4  0  0  0  0
 17 18  4  0  0  0  0
 18 19  1  0  0  0  0
 18 20  4  0  0  0  0
 11 21  4  0  0  0  0
 20 21  4  0  0  0  0
  8 22  4  0  0  0  0
 21 22  4  0  0  0  0
  5 23  4  0  0  0  0
 23 24  4  0  0  0  0
 24 25  2  0  0  0  0
 25 26  4  0  0  0  0
 26 27  2  0  0  0  0
  2 28  4  0  0  0  0
 23 28  4  0  0  0  0
 27 28  4  0  0  0  0
  1 29  1  0  0  0  0
  1 30  1  0  0  0  0
  3 31  1  0  0  0  0
  4 32  1  0  0  0  0
  9 33  1  0  0  0  0
 10 34  1  0  0  0  0
 16 35  1  0  0  0  0
 17 36  1  0  0  0  0
 19 37  1  0  0  0  0
 19 38  1  0  0  0  0
 20 39  1  0  0  0  0
 22 40  1  0  0  0  0
 24 41  1  0  0  0  0
 25 42  1  0  0  0  0
 26 43  1  0  0  0  0
 27 44  1  0  0  0  0
 48 49  1  0  0  0  0
 45 51  1  0  0  0  0
 46 51  1  0  0  0  0
 46 52  1  0  0  0  0
 47 53  1  0  0  0  0
 52 53  1  0  0  0  0
 47 54  1  0  0  0  0
 48 54  1  0  0  0  0
 53 54  1  0  0  0  0
 49 55  1  0  0  0  0
 50 56  1  0  0  0  0
 51 57  1  0  0  0  0
 51 58  1  0  0  0  0
 52 58  1  0  0  0  0
 57 58  1  0  0  0  0
 53 59  1  0  0  0  0
 54 60  1  0  0  0  0
 59 60  1  0  0  0  0
 55 61  1  0  0  0  0
 56 61  1  0  0  0  0
 50 62  1  0  0  0  0
 56 62  1  0  0  0  0
 57 63  1  0  0  0  0
 57 64  1  0  0  0  0
 58 64  1  0  0  0  0
 59 65  1  0  0  0  0
 59 66  1  0  0  0  0
 60 66  1  0  0  0  0
 65 66  1  0  0  0  0
 61 67  1  0  0  0  0
 56 68  1  0  0  0  0
 61 68  1  0  0  0  0
 62 68  1  0  0  0  0
 67 68  1  0  0  0  0
 63 69  1  0  0  0  0
 64 70  1  0  0  0  0
 65 71  1  0  0  0  0
 65 72  1  0  0  0  0
 66 72  1  0  0  0  0
 71 72  1  0  0  0  0
 67 73  1  0  0  0  0
 67 74  1  0  0  0  0
 68 74  1  0  0  0  0
 69 75  1  0  0  0  0
 70 76  2  0  0  0  0
 71 77  1  0  0  0  0
 71 78  1  0  0  0  0
 72 78  1  0  0  0  0
 77 78  1  0  0  0  0
 73 79  1  0  0  0  0
 67 80  1  0  0  0  0
 73 80  1  0  0  0  0
 74 80  1  0  0  0  0
 75 81  1  0  0  0  0
 76 82  1  0  0  0  0
 77 83  1  0  0  0  0
 78 84  1  0  0  0  0
 79 85  1  0  0  0  0
 84 85  1  0  0  0  0
 73 86  1  0  0  0  0
 80 86  1  0  0  0  0
 45 87  2  0  0  0  0
 46 87  1  0  0  0  0
 51 87  1  0  0  0  0
 46 88  1  0  0  0  0
 47 88  1  0  0  0  0
 52 88  1  0  0  0  0
 53 88  1  0  0  0  0
 47 89  1  0  0  0  0
 48 89  1  0  0  0  0
 54 89  1  0  0  0  0
 48 90  1  0  0  0  0
 49 90  1  0  0  0  0
 54 90  1  0  0  0  0
 55 90  1  0  0  0  0
 60 90  1  0  0  0  0
 49 91  1  0  0  0  0
 50 91  1  0  0  0  0
 55 91  1  0  0  0  0
 56 91  1  0  0  0  0
 75 92  1  0  0  0  0
 76 92  1  0  0  0  0
 81 92  1  0  0  0  0
 82 92  1  0  0  0  0
 76 93  1  0  0  0  0
 77 93  1  0  0  0  0
 82 93  1  0  0  0  0
 83 93  1  0  0  0  0
 77 94  1  0  0  0  0
 78 94  1  0  0  0  0
 83 94  1  0  0  0  0
 84 94  1  0  0  0  0
 72 95  1  0  0  0  0
 78 95  1  0  0  0  0
 79 95  1  0  0  0  0
 84 95  1  0  0  0  0
 85 95  1  0  0  0  0
 73 96  1  0  0  0  0
 79 96  1  0  0  0  0
 85 96  1  0  0  0  0
 86 96  1  0  0  0  0
 57 97  1  0  0  0  0
 63 97  1  0  0  0  0
 64 97  1  0  0  0  0
 69 97  1  0  0  0  0
 75 97  1  0  0  0  0
 45 98  1  0  0  0  0
 63 99  1  0  0  0  0
 69100  1  0  0  0  0
 81101  1  0  0  0  0
 50102  1  0  0  0  0
 62103  1  0  0  0  0
 74104  1  0  0  0  0
M  END
