 xtb: 6.7.1 (edcfbbe)
          09242620033D

 60110  0     0  0            999 V2000
   -5.0659    4.6559    0.4676 B   0  0  0  0  0  0  0  0  0  0  0  0
   -5.4095    2.9941    0.2442 B   0  0  0  0  0  0  0  0  0  0  0  0
   -3.4753    5.1582    0.0335 B   0  0  0  0  0  0  0  0  0  0  0  0
   -3.8144    3.5242    0.2995 B   0  0  0  0  0  0  0  0  0  0  0  0
   -4.1531    1.8691    0.4825 B   0  0  0  0  0  0  0  0  0  0  0  0
   -6.0929   -0.3302    0.4263 B   0  0  0  0  0  0  0  0  0  0  0  0
   -6.4268   -1.9453    0.9062 B   0  0  0  0  0  0  0  0  0  0  0  0
   -4.4907    0.2322    0.5804 B   0  0  0  0  0  0  0  0  0  0  0  0
   -4.8348   -1.4312    0.6204 B   0  0  0  0  0  0  0  0  0  0  0  0
   -5.1736   -3.0852    0.5880 B   0  0  0  0  0  0  0  0  0  0  0  0
   -2.1991    4.0624    0.2295 B   0  0  0  0  0  0  0  0  0  0  0  0
   -2.5450    2.3982    0.4227 B   0  0  0  0  0  0  0  0  0  0  0  0
   -0.5993    4.5919    0.4129 B   0  0  0  0  0  0  0  0  0  0  0  0
   -0.9411    2.9369    0.3627 B   0  0  0  0  0  0  0  0  0  0  0  0
   -1.2841    1.2728    0.3562 B   0  0  0  0  0  0  0  0  0  0  0  0
   -3.2221   -0.8871    0.6682 B   0  0  0  0  0  0  0  0  0  0  0  0
   -3.5643   -2.5654    0.6683 B   0  0  0  0  0  0  0  0  0  0  0  0
   -1.6226   -0.3705    0.4665 B   0  0  0  0  0  0  0  0  0  0  0  0
   -1.9610   -2.0147    0.7389 B   0  0  0  0  0  0  0  0  0  0  0  0
   -2.2989   -3.6488    0.9995 B   0  0  0  0  0  0  0  0  0  0  0  0
    0.6671    3.4739    0.2792 B   0  0  0  0  0  0  0  0  0  0  0  0
    0.3227    1.8034    0.3577 B   0  0  0  0  0  0  0  0  0  0  0  0
    2.2651    3.9757    0.0202 B   0  0  0  0  0  0  0  0  0  0  0  0
    1.9288    2.3398    0.2761 B   0  0  0  0  0  0  0  0  0  0  0  0
    1.5878    0.6874    0.4557 B   0  0  0  0  0  0  0  0  0  0  0  0
   -0.3562   -1.4902    0.5068 B   0  0  0  0  0  0  0  0  0  0  0  0
   -0.6955   -3.1387    0.8620 B   0  0  0  0  0  0  0  0  0  0  0  0
    1.2492   -0.9562    0.5436 B   0  0  0  0  0  0  0  0  0  0  0  0
    0.9087   -2.6091    0.7086 B   0  0  0  0  0  0  0  0  0  0  0  0
    0.5719   -4.2478    0.9362 B   0  0  0  0  0  0  0  0  0  0  0  0
    3.5339    2.8855    0.2981 B   0  0  0  0  0  0  0  0  0  0  0  0
    3.1919    1.2120    0.3596 B   0  0  0  0  0  0  0  0  0  0  0  0
    5.1399    3.4084    0.4313 B   0  0  0  0  0  0  0  0  0  0  0  0
    4.8021    1.7555    0.4156 B   0  0  0  0  0  0  0  0  0  0  0  0
    4.4574    0.0926    0.4571 B   0  0  0  0  0  0  0  0  0  0  0  0
    2.5154   -2.0714    0.6451 B   0  0  0  0  0  0  0  0  0  0  0  0
    2.1666   -3.7473    0.6459 B   0  0  0  0  0  0  0  0  0  0  0  0
    4.1192   -1.5476    0.4858 B   0  0  0  0  0  0  0  0  0  0  0  0
    3.7776   -3.2102    0.5434 B   0  0  0  0  0  0  0  0  0  0  0  0
    3.4353   -4.8610    0.5534 B   0  0  0  0  0  0  0  0  0  0  0  0
    6.3967    2.2708    0.1186 B   0  0  0  0  0  0  0  0  0  0  0  0
    6.0619    0.6505    0.5800 B   0  0  0  0  0  0  0  0  0  0  0  0
    5.3713   -2.6941    0.3711 B   0  0  0  0  0  0  0  0  0  0  0  0
    5.0406   -4.3112    0.8695 B   0  0  0  0  0  0  0  0  0  0  0  0
   -5.8532    5.4421    0.8403 H   0  0  0  0  0  0  0  0  0  0  0  0
   -6.4562    2.6690   -0.1640 H   0  0  0  0  0  0  0  0  0  0  0  0
   -3.3140    6.2397   -0.3970 H   0  0  0  0  0  0  0  0  0  0  0  0
   -6.9379    0.3059   -0.0742 H   0  0  0  0  0  0  0  0  0  0  0  0
   -7.4546   -2.2835    1.3604 H   0  0  0  0  0  0  0  0  0  0  0  0
   -5.4602   -4.1808    0.2735 H   0  0  0  0  0  0  0  0  0  0  0  0
   -0.3751    5.7307    0.6025 H   0  0  0  0  0  0  0  0  0  0  0  0
   -2.5447   -4.7367    1.3733 H   0  0  0  0  0  0  0  0  0  0  0  0
    2.4968    5.0813   -0.3074 H   0  0  0  0  0  0  0  0  0  0  0  0
    0.3541   -5.3780    1.1806 H   0  0  0  0  0  0  0  0  0  0  0  0
    5.4226    4.5035    0.7515 H   0  0  0  0  0  0  0  0  0  0  0  0
    3.2678   -5.9785    0.2275 H   0  0  0  0  0  0  0  0  0  0  0  0
    7.4241    2.6250   -0.3226 H   0  0  0  0  0  0  0  0  0  0  0  0
    6.8931    0.0061    1.0965 H   0  0  0  0  0  0  0  0  0  0  0  0
    6.3952   -2.4461   -0.1433 H   0  0  0  0  0  0  0  0  0  0  0  0
    5.8516   -5.0236    1.3289 H   0  0  0  0  0  0  0  0  0  0  0  0
  1  2  1  0  0  0  0
  1  3  1  0  0  0  0
  1  4  1  0  0  0  0
  2  4  1  0  0  0  0
  3  4  1  0  0  0  0
  2  5  1  0  0  0  0
  4  5  1  0  0  0  0
  6  7  1  0  0  0  0
  5  8  1  0  0  0  0
  6  8  1  0  0  0  0
  6  9  1  0  0  0  0
  7  9  1  0  0  0  0
  8  9  1  0  0  0  0
  7 10  1  0  0  0  0
  9 10  1  0  0  0  0
  3 11  1  0  0  0  0
  4 11  1  0  0  0  0
  4 12  1  0  0  0  0
  5 12  1  0  0  0  0
 11 12  1  0  0  0  0
 11 13  1  0  0  0  0
 11 14  1  0  0  0  0
 12 14  1  0  0  0  0
 13 14  1  0  0  0  0
 12 15  1  0  0  0  0
 14 15  1  0  0  0  0
  8 16  1  0  0  0  0
  9 16  1  0  0  0  0
  9 17  1  0  0  0  0
 10 17  1  0  0  0  0
 16 17  1  0  0  0  0
 15 18  1  0  0  0  0
 16 18  1  0  0  0  0
 16 19  1  0  0  0  0
 17 19  1  0  0  0  0
 18 19  1  0  0  0  0
 17 20  1  0  0  0  0
 19 20  1  0  0  0  0
 13 21  1  0  0  0  0
 14 21  1  0  0  0  0
 14 22  1  0  0  0  0
 15 22  1  0  0  0  0
 21 22  1  0  0  0  0
 21 23  1  0  0  0  0
 21 24  1  0  0  0  0
 22 24  1  0  0  0  0
 23 24  1  0  0  0  0
 22 25  1  0  0  0  0
 24 25  1  0  0  0  0
 18 26  1  0  0  0  0
 19 26  1  0  0  0  0
 19 27  1  0  0  0  0
 20 27  1  0  0  0  0
 26 27  1  0  0  0  0
 25 28  1  0  0  0  0
 26 28  1  0  0  0  0
 26 29  1  0  0  0  0
 27 29  1  0  0  0  0
 28 29  1  0  0  0  0
 27 30  1  0  0  0  0
 29 30  1  0  0  0  0
 23 31  1  0  0  0  0
 24 31  1  0  0  0  0
 24 32  1  0  0  0  0
 25 32  1  0  0  0  0
 31 32  1  0  0  0  0
 31 33  1  0  0  0  0
 31 34  1  0  0  0  0
 32 34  1  0  0  0  0
 33 34  1  0  0  0  0
 32 35  1  0  0  0  0
 34 35  1  0  0  0  0
 28 36  1  0  0  0  0
 29 36  1  0  0  0  0
 29 37  1  0  0  0  0
 30 37  1  0  0  0  0
 36 37  1  0  0  0  0
 35 38  1  0  0  0  0
 36 38  1  0  0  0  0
 36 39  1  0  0  0  0
 37 39  1  0  0  0  0
 38 39  1  0  0  0  0
 37 40  1  0  0  0  0
 39 40  1  0  0  0  0
 33 41  1  0  0  0  0
 34 41  1  0  0  0  0
 34 42  1  0  0  0  0
 35 42  1  0  0  0  0
 41 42  1  0  0  0  0
 38 43  1  0  0  0  0
 39 43  1  0  0  0  0
 39 44  1  0  0  0  0
 40 44  1  0  0  0  0
 43 44  1  0  0  0  0
  1 45  1  0  0  0  0
  2 46  1  0  0  0  0
  3 47  1  0  0  0  0
  6 48  1  0  0  0  0
  7 49  1  0  0  0  0
 10 50  1  0  0  0  0
 13 51  1  0  0  0  0
 20 52  1  0  0  0  0
 23 53  1  0  0  0  0
 30 54  1  0  0  0  0
 33 55  1  0  0  0  0
 40 56  1  0  0  0  0
 41 57  1  0  0  0  0
 42 58  1  0  0  0  0
 43 59  1  0  0  0  0
 44 60  1  0  0  0  0
M  END
