 xtb: 6.7.1pre (5071a88)
          08312621153D

 91147  0     0  0            999 V2000
   -1.9092   -0.5646    3.5380 O   0  0  0  0  0  0  0  0  0  0  0  0
   -1.5449   -0.3593    4.6915 C   0  0  0  0  0  0  0  0  0  0  0  0
   -0.0986   -0.3582    5.0196 C   0  0  0  0  0  0  0  0  0  0  0  0
    0.7769   -0.6086    3.9781 O   0  0  0  0  0  0  0  0  0  0  0  0
    0.2771   -0.1337    6.2928 C   0  0  0  0  0  0  0  0  0  0  0  0
    1.6898   -0.1271    6.7344 C   0  0  0  0  0  0  0  0  0  0  0  0
    2.0502   -0.7960    7.9203 C   0  0  0  0  0  0  0  0  0  0  0  0
    3.3707   -0.7885    8.3784 C   0  0  0  0  0  0  0  0  0  0  0  0
    4.3329   -0.1071    7.6518 C   0  0  0  0  0  0  0  0  0  0  0  0
    5.6235   -0.0985    8.0962 O   0  0  0  0  0  0  0  0  0  0  0  0
    3.9958    0.5645    6.4809 C   0  0  0  0  0  0  0  0  0  0  0  0
    4.9960    1.2161    5.8119 O   0  0  0  0  0  0  0  0  0  0  0  0
    2.6824    0.5657    6.0203 C   0  0  0  0  0  0  0  0  0  0  0  0
   -0.6154    0.0931    7.3348 O   0  0  0  0  0  0  0  0  0  0  0  0
   -1.9592    0.1064    7.0655 C   0  0  0  0  0  0  0  0  0  0  0  0
   -2.8215    0.3475    8.1343 C   0  0  0  0  0  0  0  0  0  0  0  0
   -4.2010    0.3708    7.9193 C   0  0  0  0  0  0  0  0  0  0  0  0
   -4.7080    0.1531    6.6406 C   0  0  0  0  0  0  0  0  0  0  0  0
   -6.0612    0.1855    6.4831 O   0  0  0  0  0  0  0  0  0  0  0  0
   -3.8590   -0.0882    5.5665 C   0  0  0  0  0  0  0  0  0  0  0  0
   -2.4793   -0.1090    5.7924 C   0  0  0  0  0  0  0  0  0  0  0  0
    0.2016   -0.7732    3.2000 H   0  0  0  0  0  0  0  0  0  0  0  0
    1.3015   -1.3357    8.4969 H   0  0  0  0  0  0  0  0  0  0  0  0
    3.6427   -1.3093    9.2912 H   0  0  0  0  0  0  0  0  0  0  0  0
    6.1061    0.4332    7.4322 H   0  0  0  0  0  0  0  0  0  0  0  0
    4.6184    1.5871    4.9955 H   0  0  0  0  0  0  0  0  0  0  0  0
    2.4220    1.1011    5.1122 H   0  0  0  0  0  0  0  0  0  0  0  0
   -2.4249    0.5175    9.1319 H   0  0  0  0  0  0  0  0  0  0  0  0
   -4.8802    0.5583    8.7473 H   0  0  0  0  0  0  0  0  0  0  0  0
   -6.2780    0.0163    5.5506 H   0  0  0  0  0  0  0  0  0  0  0  0
   -4.2471   -0.2589    4.5666 H   0  0  0  0  0  0  0  0  0  0  0  0
   -6.3511   -2.8545   -0.3396 B   0  0  0  0  0  0  0  0  0  0  0  0
   -3.8632   -3.4276    0.8712 B   0  0  0  0  0  0  0  0  0  0  0  0
   -1.0552   -4.1651    1.9793 B   0  0  0  0  0  0  0  0  0  0  0  0
    1.6853   -4.2318    1.3549 B   0  0  0  0  0  0  0  0  0  0  0  0
    2.9703   -3.6923    0.6219 B   0  0  0  0  0  0  0  0  0  0  0  0
    5.9076   -3.8486   -0.3800 B   0  0  0  0  0  0  0  0  0  0  0  0
   -4.7612   -2.3307   -0.4078 B   0  0  0  0  0  0  0  0  0  0  0  0
   -2.6199   -2.2111    0.8442 B   0  0  0  0  0  0  0  0  0  0  0  0
   -1.2327   -2.3911    1.7792 B   0  0  0  0  0  0  0  0  0  0  0  0
    0.2814   -3.1446    1.2586 B   0  0  0  0  0  0  0  0  0  0  0  0
    3.1280   -2.1353    0.0337 B   0  0  0  0  0  0  0  0  0  0  0  0
    5.2824   -2.5807   -1.1427 B   0  0  0  0  0  0  0  0  0  0  0  0
   -4.3827   -1.0545   -1.3461 B   0  0  0  0  0  0  0  0  0  0  0  0
   -3.1924   -1.2685   -0.2398 B   0  0  0  0  0  0  0  0  0  0  0  0
   -0.7667   -0.9151    2.1471 B   0  0  0  0  0  0  0  0  0  0  0  0
    0.4341   -1.5098    0.8825 B   0  0  0  0  0  0  0  0  0  0  0  0
    4.2603   -1.2719   -0.6057 B   0  0  0  0  0  0  0  0  0  0  0  0
    6.8452   -2.4756   -0.8065 B   0  0  0  0  0  0  0  0  0  0  0  0
   -5.0072   -0.6437   -2.8496 B   0  0  0  0  0  0  0  0  0  0  0  0
   -3.1952    0.1543   -0.9257 B   0  0  0  0  0  0  0  0  0  0  0  0
   -0.9469    0.6233    2.2104 B   0  0  0  0  0  0  0  0  0  0  0  0
    0.0016   -0.0204    0.9084 B   0  0  0  0  0  0  0  0  0  0  0  0
    4.8754    0.2242   -0.5476 B   0  0  0  0  0  0  0  0  0  0  0  0
    5.8786   -1.0664   -1.1306 B   0  0  0  0  0  0  0  0  0  0  0  0
   -5.7672    0.8535   -2.9176 B   0  0  0  0  0  0  0  0  0  0  0  0
   -2.8971    1.6282   -0.7083 B   0  0  0  0  0  0  0  0  0  0  0  0
   -1.2399    2.1332    2.0889 B   0  0  0  0  0  0  0  0  0  0  0  0
    0.1883    1.5499    1.0540 B   0  0  0  0  0  0  0  0  0  0  0  0
    4.2581    1.5841    0.0647 B   0  0  0  0  0  0  0  0  0  0  0  0
    6.3075    0.4397   -1.6258 B   0  0  0  0  0  0  0  0  0  0  0  0
   -5.7341    1.7554   -1.4938 B   0  0  0  0  0  0  0  0  0  0  0  0
   -3.3469    2.9740   -0.1746 B   0  0  0  0  0  0  0  0  0  0  0  0
   -1.6646    3.6160    1.7973 B   0  0  0  0  0  0  0  0  0  0  0  0
   -0.0590    3.1640    1.3235 B   0  0  0  0  0  0  0  0  0  0  0  0
    2.9656    2.2589    0.6844 B   0  0  0  0  0  0  0  0  0  0  0  0
    5.7919    1.6725   -0.6985 B   0  0  0  0  0  0  0  0  0  0  0  0
   -6.6389    2.8000   -0.8422 B   0  0  0  0  0  0  0  0  0  0  0  0
   -4.4746    3.8873    0.5879 B   0  0  0  0  0  0  0  0  0  0  0  0
   -1.7771    5.1752    1.2154 B   0  0  0  0  0  0  0  0  0  0  0  0
    1.1754    4.4066    1.3290 B   0  0  0  0  0  0  0  0  0  0  0  0
    2.5938    3.9229    0.8796 B   0  0  0  0  0  0  0  0  0  0  0  0
    5.3509    2.9860   -0.0541 B   0  0  0  0  0  0  0  0  0  0  0  0
   -5.3190   -3.6348    0.4165 B   0  0  0  0  0  0  0  0  0  0  0  0
   -2.4877   -3.6329    1.6055 B   0  0  0  0  0  0  0  0  0  0  0  0
    0.3596   -4.7213    1.9063 B   0  0  0  0  0  0  0  0  0  0  0  0
    1.7215   -2.4162    0.7345 B   0  0  0  0  0  0  0  0  0  0  0  0
    4.3387   -3.4800   -0.0729 B   0  0  0  0  0  0  0  0  0  0  0  0
   -5.0953    2.8472   -0.3735 B   0  0  0  0  0  0  0  0  0  0  0  0
   -3.0345    4.3187    0.9326 B   0  0  0  0  0  0  0  0  0  0  0  0
   -0.2869    4.8951    1.4426 B   0  0  0  0  0  0  0  0  0  0  0  0
    1.4616    2.5482    0.9924 B   0  0  0  0  0  0  0  0  0  0  0  0
    4.0784    3.6198    0.5106 B   0  0  0  0  0  0  0  0  0  0  0  0
   -4.5957    0.5913   -1.8415 B   0  0  0  0  0  0  0  0  0  0  0  0
   -7.3684   -2.5027   -0.8103 H   0  0  0  0  0  0  0  0  0  0  0  0
   -4.9591   -1.3760   -3.7739 H   0  0  0  0  0  0  0  0  0  0  0  0
   -6.3246    1.2608   -3.8715 H   0  0  0  0  0  0  0  0  0  0  0  0
   -7.6134    3.4017   -0.5976 H   0  0  0  0  0  0  0  0  0  0  0  0
    6.3612   -4.9354   -0.3602 H   0  0  0  0  0  0  0  0  0  0  0  0
    8.0163   -2.4682   -0.9061 H   0  0  0  0  0  0  0  0  0  0  0  0
    6.9392    0.6146   -2.6128 H   0  0  0  0  0  0  0  0  0  0  0  0
  1  2  4  0  0  0  0
  2  3  1  0  0  0  0
  3  4  1  0  0  0  0
  3  5  2  0  0  0  0
  5  6  1  0  0  0  0
  6  7  4  0  0  0  0
  7  8  4  0  0  0  0
  8  9  4  0  0  0  0
  9 10  1  0  0  0  0
  9 11  4  0  0  0  0
 11 12  1  0  0  0  0
  6 13  4  0  0  0  0
 11 13  4  0  0  0  0
  5 14  1  0  0  0  0
 14 15  1  0  0  0  0
 15 16  4  0  0  0  0
 16 17  4  0  0  0  0
 17 18  4  0  0  0  0
 18 19  1  0  0  0  0
 18 20  4  0  0  0  0
  2 21  1  0  0  0  0
 15 21  4  0  0  0  0
 20 21  4  0  0  0  0
  4 22  1  0  0  0  0
  7 23  1  0  0  0  0
  8 24  1  0  0  0  0
 10 25  1  0  0  0  0
 12 26  1  0  0  0  0
 13 27  1  0  0  0  0
 16 28  1  0  0  0  0
 17 29  1  0  0  0  0
 19 30  1  0  0  0  0
 20 31  1  0  0  0  0
 35 36  1  0  0  0  0
 32 38  1  0  0  0  0
 33 38  1  0  0  0  0
 33 39  1  0  0  0  0
 34 40  1  0  0  0  0
 39 40  1  0  0  0  0
 34 41  1  0  0  0  0
 35 41  1  0  0  0  0
 40 41  1  0  0  0  0
 36 42  1  0  0  0  0
 37 43  1  0  0  0  0
 38 44  1  0  0  0  0
 38 45  1  0  0  0  0
 39 45  1  0  0  0  0
 44 45  1  0  0  0  0
  1 46  1  0  0  0  0
 40 46  1  0  0  0  0
 41 47  1  0  0  0  0
 46 47  1  0  0  0  0
 42 48  1  0  0  0  0
 43 48  1  0  0  0  0
 37 49  1  0  0  0  0
 43 49  1  0  0  0  0
 44 50  1  0  0  0  0
 44 51  1  0  0  0  0
 45 51  1  0  0  0  0
 46 52  1  0  0  0  0
 46 53  1  0  0  0  0
 47 53  1  0  0  0  0
 52 53  1  0  0  0  0
 48 54  1  0  0  0  0
 43 55  1  0  0  0  0
 48 55  1  0  0  0  0
 49 55  1  0  0  0  0
 54 55  1  0  0  0  0
 50 56  1  0  0  0  0
 51 57  1  0  0  0  0
 52 58  1  0  0  0  0
 52 59  1  0  0  0  0
 53 59  1  0  0  0  0
 58 59  1  0  0  0  0
 54 60  1  0  0  0  0
 54 61  1  0  0  0  0
 55 61  1  0  0  0  0
 56 62  1  0  0  0  0
 57 63  2  0  0  0  0
 58 64  1  0  0  0  0
 58 65  1  0  0  0  0
 59 65  1  0  0  0  0
 64 65  1  0  0  0  0
 60 66  1  0  0  0  0
 54 67  1  0  0  0  0
 60 67  1  0  0  0  0
 61 67  1  0  0  0  0
 62 68  1  0  0  0  0
 63 69  1  0  0  0  0
 64 70  1  0  0  0  0
 65 71  1  0  0  0  0
 66 72  1  0  0  0  0
 71 72  1  0  0  0  0
 60 73  1  0  0  0  0
 67 73  1  0  0  0  0
 32 74  2  0  0  0  0
 33 74  1  0  0  0  0
 38 74  1  0  0  0  0
 33 75  1  0  0  0  0
 34 75  1  0  0  0  0
 39 75  1  0  0  0  0
 40 75  1  0  0  0  0
 34 76  1  0  0  0  0
 35 76  1  0  0  0  0
 41 76  1  0  0  0  0
 35 77  1  0  0  0  0
 36 77  1  0  0  0  0
 41 77  1  0  0  0  0
 42 77  1  0  0  0  0
 47 77  1  0  0  0  0
 36 78  1  0  0  0  0
 37 78  1  0  0  0  0
 42 78  1  0  0  0  0
 43 78  1  0  0  0  0
 62 79  1  0  0  0  0
 63 79  1  0  0  0  0
 68 79  1  0  0  0  0
 69 79  1  0  0  0  0
 63 80  1  0  0  0  0
 64 80  1  0  0  0  0
 69 80  1  0  0  0  0
 70 80  1  0  0  0  0
 64 81  1  0  0  0  0
 65 81  1  0  0  0  0
 70 81  1  0  0  0  0
 71 81  1  0  0  0  0
 59 82  1  0  0  0  0
 65 82  1  0  0  0  0
 66 82  1  0  0  0  0
 71 82  1  0  0  0  0
 72 82  1  0  0  0  0
 60 83  1  0  0  0  0
 66 83  1  0  0  0  0
 72 83  1  0  0  0  0
 73 83  1  0  0  0  0
 44 84  1  0  0  0  0
 50 84  1  0  0  0  0
 51 84  1  0  0  0  0
 56 84  1  0  0  0  0
 62 84  1  0  0  0  0
 32 85  1  0  0  0  0
 50 86  1  0  0  0  0
 56 87  1  0  0  0  0
 68 88  1  0  0  0  0
 37 89  1  0  0  0  0
 49 90  1  0  0  0  0
 61 91  1  0  0  0  0
M  END
