 xtb: 6.7.1pre (5071a88)
          09012620283D

 86123  0     0  0            999 V2000
   -1.9092   -0.5646    6.5136 O   0  0  0  0  0  0  0  0  0  0  0  0
   -1.5449   -0.3593    7.6672 C   0  0  0  0  0  0  0  0  0  0  0  0
   -0.0986   -0.3582    7.9953 C   0  0  0  0  0  0  0  0  0  0  0  0
    0.7769   -0.6086    6.9538 O   0  0  0  0  0  0  0  0  0  0  0  0
    0.2771   -0.1337    9.2685 C   0  0  0  0  0  0  0  0  0  0  0  0
    1.6898   -0.1271    9.7101 C   0  0  0  0  0  0  0  0  0  0  0  0
    2.0502   -0.7960   10.8960 C   0  0  0  0  0  0  0  0  0  0  0  0
    3.3707   -0.7885   11.3540 C   0  0  0  0  0  0  0  0  0  0  0  0
    4.3329   -0.1071   10.6275 C   0  0  0  0  0  0  0  0  0  0  0  0
    5.6235   -0.0985   11.0719 O   0  0  0  0  0  0  0  0  0  0  0  0
    3.9958    0.5645    9.4566 C   0  0  0  0  0  0  0  0  0  0  0  0
    4.9960    1.2161    8.7876 O   0  0  0  0  0  0  0  0  0  0  0  0
    2.6824    0.5657    8.9959 C   0  0  0  0  0  0  0  0  0  0  0  0
   -0.6154    0.0931   10.3104 O   0  0  0  0  0  0  0  0  0  0  0  0
   -1.9592    0.1064   10.0412 C   0  0  0  0  0  0  0  0  0  0  0  0
   -2.8215    0.3475   11.1100 C   0  0  0  0  0  0  0  0  0  0  0  0
   -4.2010    0.3708   10.8950 C   0  0  0  0  0  0  0  0  0  0  0  0
   -4.7080    0.1531    9.6162 C   0  0  0  0  0  0  0  0  0  0  0  0
   -6.0612    0.1855    9.4588 O   0  0  0  0  0  0  0  0  0  0  0  0
   -3.8590   -0.0882    8.5422 C   0  0  0  0  0  0  0  0  0  0  0  0
   -2.4793   -0.1090    8.7681 C   0  0  0  0  0  0  0  0  0  0  0  0
    0.2016   -0.7732    6.1757 H   0  0  0  0  0  0  0  0  0  0  0  0
    1.3015   -1.3357   11.4726 H   0  0  0  0  0  0  0  0  0  0  0  0
    3.6427   -1.3093   12.2669 H   0  0  0  0  0  0  0  0  0  0  0  0
    6.1061    0.4332   10.4079 H   0  0  0  0  0  0  0  0  0  0  0  0
    4.6184    1.5871    7.9712 H   0  0  0  0  0  0  0  0  0  0  0  0
    2.4220    1.1011    8.0879 H   0  0  0  0  0  0  0  0  0  0  0  0
   -2.4249    0.5175   12.1076 H   0  0  0  0  0  0  0  0  0  0  0  0
   -4.8802    0.5583   11.7230 H   0  0  0  0  0  0  0  0  0  0  0  0
   -6.2780    0.0163    8.5263 H   0  0  0  0  0  0  0  0  0  0  0  0
   -4.2471   -0.2589    7.5423 H   0  0  0  0  0  0  0  0  0  0  0  0
   -4.7806   -2.6045    0.3173 B   0  0  0  0  0  0  0  0  0  0  0  0
   -4.5695   -1.3567   -0.6480 B   0  0  0  0  0  0  0  0  0  0  0  0
   -4.4639   -0.2474   -1.8829 B   0  0  0  0  0  0  0  0  0  0  0  0
   -3.3965   -2.6620   -0.5028 B   0  0  0  0  0  0  0  0  0  0  0  0
   -3.0380    0.1776   -1.4048 B   0  0  0  0  0  0  0  0  0  0  0  0
   -4.3909    0.3426   -0.1924 B   0  0  0  0  0  0  0  0  0  0  0  0
   -5.0310    1.4031    0.8192 B   0  0  0  0  0  0  0  0  0  0  0  0
   -4.6201    2.9864    0.9976 B   0  0  0  0  0  0  0  0  0  0  0  0
   -2.8089    0.5128    0.1995 B   0  0  0  0  0  0  0  0  0  0  0  0
   -3.2186    3.2275    1.7932 B   0  0  0  0  0  0  0  0  0  0  0  0
   -2.1611   -3.7758   -0.5843 B   0  0  0  0  0  0  0  0  0  0  0  0
   -1.8769   -2.2481   -0.9334 B   0  0  0  0  0  0  0  0  0  0  0  0
   -1.6972   -0.6133   -0.8358 B   0  0  0  0  0  0  0  0  0  0  0  0
   -0.5844   -3.2190   -0.8350 B   0  0  0  0  0  0  0  0  0  0  0  0
   -0.2198   -0.1484   -0.3118 B   0  0  0  0  0  0  0  0  0  0  0  0
   -1.3950    0.0358    0.8521 B   0  0  0  0  0  0  0  0  0  0  0  0
   -1.7757    1.6621    0.7592 B   0  0  0  0  0  0  0  0  0  0  0  0
   -1.8975    3.2370    0.8826 B   0  0  0  0  0  0  0  0  0  0  0  0
   -0.2153    1.0372    1.0697 B   0  0  0  0  0  0  0  0  0  0  0  0
   -0.7521    4.3480    0.5584 B   0  0  0  0  0  0  0  0  0  0  0  0
    0.8265   -4.1129   -0.7400 B   0  0  0  0  0  0  0  0  0  0  0  0
    0.9251   -2.5054   -0.7497 B   0  0  0  0  0  0  0  0  0  0  0  0
    1.2144   -0.9490   -0.5870 B   0  0  0  0  0  0  0  0  0  0  0  0
    2.2007   -3.4026   -0.1682 B   0  0  0  0  0  0  0  0  0  0  0  0
    2.6220   -0.1957   -0.2930 B   0  0  0  0  0  0  0  0  0  0  0  0
    1.2341    0.5516    0.1426 B   0  0  0  0  0  0  0  0  0  0  0  0
    1.1248    2.0009    1.0430 B   0  0  0  0  0  0  0  0  0  0  0  0
    0.5366    3.4372    0.6180 B   0  0  0  0  0  0  0  0  0  0  0  0
    2.4580    1.6726    0.0875 B   0  0  0  0  0  0  0  0  0  0  0  0
    1.2136    3.0171   -0.8530 B   0  0  0  0  0  0  0  0  0  0  0  0
    3.2202   -3.8508    1.1044 B   0  0  0  0  0  0  0  0  0  0  0  0
    3.6240   -2.6535    0.0637 B   0  0  0  0  0  0  0  0  0  0  0  0
    4.0250   -1.1219   -0.2366 B   0  0  0  0  0  0  0  0  0  0  0  0
    4.4174   -2.8355    1.4203 B   0  0  0  0  0  0  0  0  0  0  0  0
    5.3636   -0.2419   -0.6898 B   0  0  0  0  0  0  0  0  0  0  0  0
    4.1041    0.5310   -0.0135 B   0  0  0  0  0  0  0  0  0  0  0  0
    4.0181    2.3218   -0.0338 B   0  0  0  0  0  0  0  0  0  0  0  0
    2.8218    3.0968   -0.9129 B   0  0  0  0  0  0  0  0  0  0  0  0
    5.4220    1.4583   -0.1853 B   0  0  0  0  0  0  0  0  0  0  0  0
    4.2961    3.5501   -1.0140 B   0  0  0  0  0  0  0  0  0  0  0  0
   -5.1687   -3.0949    1.3107 H   0  0  0  0  0  0  0  0  0  0  0  0
   -5.7161   -2.0764   -0.3935 H   0  0  0  0  0  0  0  0  0  0  0  0
   -5.2640   -0.1207   -2.7417 H   0  0  0  0  0  0  0  0  0  0  0  0
   -5.7711    1.0074    1.6646 H   0  0  0  0  0  0  0  0  0  0  0  0
   -5.3645    3.8431    0.6720 H   0  0  0  0  0  0  0  0  0  0  0  0
   -3.2343    3.2250    2.9757 H   0  0  0  0  0  0  0  0  0  0  0  0
   -2.3593   -4.9262   -0.4732 H   0  0  0  0  0  0  0  0  0  0  0  0
   -0.8965    5.4755    0.2443 H   0  0  0  0  0  0  0  0  0  0  0  0
    0.8223   -5.2498   -1.0233 H   0  0  0  0  0  0  0  0  0  0  0  0
    0.5537    2.6943   -1.7837 H   0  0  0  0  0  0  0  0  0  0  0  0
    2.9703   -4.8176    1.7172 H   0  0  0  0  0  0  0  0  0  0  0  0
    5.2631   -2.5125    2.1565 H   0  0  0  0  0  0  0  0  0  0  0  0
    6.3848   -0.6467   -1.0956 H   0  0  0  0  0  0  0  0  0  0  0  0
    6.5032    1.8382    0.0650 H   0  0  0  0  0  0  0  0  0  0  0  0
    5.1389    4.2524   -1.4154 H   0  0  0  0  0  0  0  0  0  0  0  0
  1  2  2  0  0  0  0
  2  3  1  0  0  0  0
  3  4  1  0  0  0  0
  3  5  2  0  0  0  0
  5  6  1  0  0  0  0
  6  7  4  0  0  0  0
  7  8  4  0  0  0  0
  8  9  4  0  0  0  0
  9 10  1  0  0  0  0
  9 11  4  0  0  0  0
 11 12  1  0  0  0  0
  6 13  4  0  0  0  0
 11 13  4  0  0  0  0
  5 14  1  0  0  0  0
 14 15  1  0  0  0  0
 15 16  4  0  0  0  0
 16 17  4  0  0  0  0
 17 18  4  0  0  0  0
 18 19  1  0  0  0  0
 18 20  4  0  0  0  0
  2 21  1  0  0  0  0
 15 21  4  0  0  0  0
 20 21  4  0  0  0  0
  4 22  1  0  0  0  0
  7 23  1  0  0  0  0
  8 24  1  0  0  0  0
 10 25  1  0  0  0  0
 12 26  1  0  0  0  0
 13 27  1  0  0  0  0
 16 28  1  0  0  0  0
 17 29  1  0  0  0  0
 19 30  1  0  0  0  0
 20 31  1  0  0  0  0
 32 33  1  0  0  0  0
 33 34  1  0  0  0  0
 32 35  1  0  0  0  0
 33 35  1  0  0  0  0
 34 36  1  0  0  0  0
 33 37  1  0  0  0  0
 34 37  1  0  0  0  0
 36 37  1  0  0  0  0
 37 38  1  0  0  0  0
 38 39  1  0  0  0  0
 36 40  1  0  0  0  0
 37 40  1  0  0  0  0
 39 41  1  0  0  0  0
 35 42  1  0  0  0  0
 35 43  1  0  0  0  0
 42 43  1  0  0  0  0
 36 44  1  0  0  0  0
 40 44  1  0  0  0  0
 43 44  1  0  0  0  0
 42 45  1  0  0  0  0
 43 45  1  0  0  0  0
 44 46  1  0  0  0  0
 40 47  1  0  0  0  0
 44 47  1  0  0  0  0
 46 47  1  0  0  0  0
 40 48  1  0  0  0  0
 47 48  1  0  0  0  0
 41 49  1  0  0  0  0
 48 49  1  0  0  0  0
 46 50  1  0  0  0  0
 47 50  1  0  0  0  0
 48 50  1  0  0  0  0
 49 51  1  0  0  0  0
 45 52  1  0  0  0  0
 45 53  1  0  0  0  0
 52 53  1  0  0  0  0
 46 54  1  0  0  0  0
 53 54  1  0  0  0  0
 52 55  1  0  0  0  0
 53 55  1  0  0  0  0
 54 56  1  0  0  0  0
 46 57  1  0  0  0  0
 50 57  1  0  0  0  0
 54 57  1  0  0  0  0
 56 57  1  0  0  0  0
 50 58  1  0  0  0  0
 57 58  1  0  0  0  0
 51 59  1  0  0  0  0
 58 59  1  0  0  0  0
 56 60  1  0  0  0  0
 57 60  1  0  0  0  0
 58 60  1  0  0  0  0
 59 61  1  0  0  0  0
 55 62  1  0  0  0  0
 55 63  1  0  0  0  0
 62 63  1  0  0  0  0
 56 64  1  0  0  0  0
 63 64  1  0  0  0  0
 62 65  1  0  0  0  0
 63 65  1  0  0  0  0
 64 66  1  0  0  0  0
 56 67  1  0  0  0  0
 64 67  1  0  0  0  0
 66 67  1  0  0  0  0
 60 68  1  0  0  0  0
 67 68  1  0  0  0  0
 60 69  1  0  0  0  0
 61 69  1  0  0  0  0
 68 69  1  0  0  0  0
 66 70  1  0  0  0  0
 67 70  1  0  0  0  0
 68 70  1  0  0  0  0
 68 71  1  0  0  0  0
 69 71  1  0  0  0  0
 32 72  1  0  0  0  0
 32 73  1  0  0  0  0
 33 73  1  0  0  0  0
 34 74  1  0  0  0  0
 38 75  1  0  0  0  0
 39 76  1  0  0  0  0
 41 77  1  0  0  0  0
 42 78  1  0  0  0  0
 51 79  1  0  0  0  0
 52 80  1  0  0  0  0
 61 81  1  0  0  0  0
 62 82  1  0  0  0  0
 65 83  1  0  0  0  0
 66 84  1  0  0  0  0
 70 85  1  0  0  0  0
 71 86  1  0  0  0  0
M  END
