 xtb: 6.7.1pre (5071a88)
          09012616343D

 91133  0     0  0            999 V2000
   -1.9092   -0.5646    5.2864 O   0  0  0  0  0  0  0  0  0  0  0  0
   -1.5449   -0.3593    6.4400 C   0  0  0  0  0  0  0  0  0  0  0  0
   -0.0986   -0.3582    6.7681 C   0  0  0  0  0  0  0  0  0  0  0  0
    0.7769   -0.6086    5.7266 O   0  0  0  0  0  0  0  0  0  0  0  0
    0.2771   -0.1337    8.0412 C   0  0  0  0  0  0  0  0  0  0  0  0
    1.6898   -0.1271    8.4829 C   0  0  0  0  0  0  0  0  0  0  0  0
    2.0502   -0.7960    9.6687 C   0  0  0  0  0  0  0  0  0  0  0  0
    3.3707   -0.7885   10.1268 C   0  0  0  0  0  0  0  0  0  0  0  0
    4.3329   -0.1071    9.4003 C   0  0  0  0  0  0  0  0  0  0  0  0
    5.6235   -0.0985    9.8446 O   0  0  0  0  0  0  0  0  0  0  0  0
    3.9958    0.5645    8.2294 C   0  0  0  0  0  0  0  0  0  0  0  0
    4.9960    1.2161    7.5604 O   0  0  0  0  0  0  0  0  0  0  0  0
    2.6824    0.5657    7.7687 C   0  0  0  0  0  0  0  0  0  0  0  0
   -0.6154    0.0931    9.0832 O   0  0  0  0  0  0  0  0  0  0  0  0
   -1.9592    0.1064    8.8140 C   0  0  0  0  0  0  0  0  0  0  0  0
   -2.8215    0.3475    9.8828 C   0  0  0  0  0  0  0  0  0  0  0  0
   -4.2010    0.3708    9.6678 C   0  0  0  0  0  0  0  0  0  0  0  0
   -4.7080    0.1531    8.3890 C   0  0  0  0  0  0  0  0  0  0  0  0
   -6.0612    0.1855    8.2315 O   0  0  0  0  0  0  0  0  0  0  0  0
   -3.8590   -0.0882    7.3149 C   0  0  0  0  0  0  0  0  0  0  0  0
   -2.4793   -0.1090    7.5409 C   0  0  0  0  0  0  0  0  0  0  0  0
    0.2016   -0.7732    4.9485 H   0  0  0  0  0  0  0  0  0  0  0  0
    1.3015   -1.3357   10.2454 H   0  0  0  0  0  0  0  0  0  0  0  0
    3.6427   -1.3093   11.0397 H   0  0  0  0  0  0  0  0  0  0  0  0
    6.1061    0.4332    9.1807 H   0  0  0  0  0  0  0  0  0  0  0  0
    4.6184    1.5871    6.7440 H   0  0  0  0  0  0  0  0  0  0  0  0
    2.4220    1.1011    6.8607 H   0  0  0  0  0  0  0  0  0  0  0  0
   -2.4249    0.5175   10.8804 H   0  0  0  0  0  0  0  0  0  0  0  0
   -4.8802    0.5583   10.4958 H   0  0  0  0  0  0  0  0  0  0  0  0
   -6.2780    0.0163    7.2991 H   0  0  0  0  0  0  0  0  0  0  0  0
   -4.2471   -0.2589    6.3151 H   0  0  0  0  0  0  0  0  0  0  0  0
   -6.9256   -4.6511    0.2587 B   0  0  0  0  0  0  0  0  0  0  0  0
   -5.1098   -2.2493    0.3222 B   0  0  0  0  0  0  0  0  0  0  0  0
   -3.5915   -2.1814    0.2128 B   0  0  0  0  0  0  0  0  0  0  0  0
    0.9993   -2.8754    0.0638 B   0  0  0  0  0  0  0  0  0  0  0  0
    2.4759   -3.0122   -0.2709 B   0  0  0  0  0  0  0  0  0  0  0  0
    5.2994   -3.8314   -0.6672 B   0  0  0  0  0  0  0  0  0  0  0  0
    6.3183   -4.8359   -1.1558 B   0  0  0  0  0  0  0  0  0  0  0  0
   -6.4348   -3.1583    0.2864 B   0  0  0  0  0  0  0  0  0  0  0  0
   -6.7520   -1.6338    0.3164 B   0  0  0  0  0  0  0  0  0  0  0  0
   -2.0526   -2.3173    0.3349 B   0  0  0  0  0  0  0  0  0  0  0  0
   -0.4841   -2.4619    0.2574 B   0  0  0  0  0  0  0  0  0  0  0  0
    4.0184   -2.9011   -0.2872 B   0  0  0  0  0  0  0  0  0  0  0  0
    5.7532   -2.2815   -0.3028 B   0  0  0  0  0  0  0  0  0  0  0  0
    6.8301   -3.2288   -1.0929 B   0  0  0  0  0  0  0  0  0  0  0  0
   -7.6564   -0.2550    0.3431 B   0  0  0  0  0  0  0  0  0  0  0  0
   -6.0374   -0.1395    0.1913 B   0  0  0  0  0  0  0  0  0  0  0  0
   -4.4316   -0.5357    0.2239 B   0  0  0  0  0  0  0  0  0  0  0  0
   -2.7379   -0.6604    0.3290 B   0  0  0  0  0  0  0  0  0  0  0  0
   -1.0518   -0.9157    0.6419 B   0  0  0  0  0  0  0  0  0  0  0  0
    0.5171   -1.1722    0.7257 B   0  0  0  0  0  0  0  0  0  0  0  0
    3.1231   -1.4831   -0.0635 B   0  0  0  0  0  0  0  0  0  0  0  0
    4.7001   -1.1340    0.3402 B   0  0  0  0  0  0  0  0  0  0  0  0
    6.2667   -0.7872    0.2517 B   0  0  0  0  0  0  0  0  0  0  0  0
    7.6720   -0.3517    1.0327 B   0  0  0  0  0  0  0  0  0  0  0  0
   -6.9181    1.2121    0.1915 B   0  0  0  0  0  0  0  0  0  0  0  0
   -3.4184    0.7801    0.0809 B   0  0  0  0  0  0  0  0  0  0  0  0
   -1.6542    0.5326    0.1239 B   0  0  0  0  0  0  0  0  0  0  0  0
    1.8622   -0.4037    0.3246 B   0  0  0  0  0  0  0  0  0  0  0  0
    3.5847   -0.1504    0.7852 B   0  0  0  0  0  0  0  0  0  0  0  0
    6.9910    0.6111   -0.1068 B   0  0  0  0  0  0  0  0  0  0  0  0
    8.3074    1.0629    0.6316 B   0  0  0  0  0  0  0  0  0  0  0  0
   -7.6194    2.8040    0.2986 B   0  0  0  0  0  0  0  0  0  0  0  0
   -6.1238    2.5185   -0.1765 B   0  0  0  0  0  0  0  0  0  0  0  0
   -3.5886    2.3277   -0.2368 B   0  0  0  0  0  0  0  0  0  0  0  0
   -0.9061    1.8195   -0.4198 B   0  0  0  0  0  0  0  0  0  0  0  0
    1.6234    1.0199   -0.4108 B   0  0  0  0  0  0  0  0  0  0  0  0
    3.0108    1.3090    0.5297 B   0  0  0  0  0  0  0  0  0  0  0  0
    6.3729    1.8582   -0.9160 B   0  0  0  0  0  0  0  0  0  0  0  0
   -6.5277    4.0456   -0.1608 B   0  0  0  0  0  0  0  0  0  0  0  0
   -4.8736    3.4948   -0.3884 B   0  0  0  0  0  0  0  0  0  0  0  0
   -3.4155    3.8801   -0.6064 B   0  0  0  0  0  0  0  0  0  0  0  0
   -2.0235    3.2206   -0.6767 B   0  0  0  0  0  0  0  0  0  0  0  0
   -0.4974    3.2796   -0.8970 B   0  0  0  0  0  0  0  0  0  0  0  0
    0.7107    2.3324   -0.7457 B   0  0  0  0  0  0  0  0  0  0  0  0
    2.3353    2.4781   -0.4754 B   0  0  0  0  0  0  0  0  0  0  0  0
    3.8161    2.6195   -0.0941 B   0  0  0  0  0  0  0  0  0  0  0  0
    5.3698    2.8646   -0.1489 B   0  0  0  0  0  0  0  0  0  0  0  0
    6.0551    4.0800    0.6312 B   0  0  0  0  0  0  0  0  0  0  0  0
    6.2041    5.1477    0.1463 H   0  0  0  0  0  0  0  0  0  0  0  0
    8.2184   -1.1210    1.7268 H   0  0  0  0  0  0  0  0  0  0  0  0
    6.6224    1.9818   -2.0674 H   0  0  0  0  0  0  0  0  0  0  0  0
   -7.0900   -5.2506   -0.7538 H   0  0  0  0  0  0  0  0  0  0  0  0
   -6.7912    5.1815   -0.2852 H   0  0  0  0  0  0  0  0  0  0  0  0
    9.1569    1.8466    0.7900 H   0  0  0  0  0  0  0  0  0  0  0  0
   -8.8277   -0.3758    0.3286 H   0  0  0  0  0  0  0  0  0  0  0  0
    6.7839   -5.8690   -1.4465 H   0  0  0  0  0  0  0  0  0  0  0  0
   -8.7247    3.0012    0.6388 H   0  0  0  0  0  0  0  0  0  0  0  0
    7.8918   -2.8835   -1.4737 H   0  0  0  0  0  0  0  0  0  0  0  0
    6.4282    3.9996    1.7485 H   0  0  0  0  0  0  0  0  0  0  0  0
   -7.2249   -5.2823    1.2187 H   0  0  0  0  0  0  0  0  0  0  0  0
  1  2  2  0  0  0  0
  2  3  1  0  0  0  0
  3  4  1  0  0  0  0
  3  5  2  0  0  0  0
  5  6  1  0  0  0  0
  6  7  4  0  0  0  0
  7  8  4  0  0  0  0
  8  9  4  0  0  0  0
  9 10  1  0  0  0  0
  9 11  4  0  0  0  0
 11 12  1  0  0  0  0
  6 13  4  0  0  0  0
 11 13  4  0  0  0  0
  5 14  1  0  0  0  0
 14 15  1  0  0  0  0
 15 16  4  0  0  0  0
 16 17  4  0  0  0  0
 17 18  4  0  0  0  0
 18 19  1  0  0  0  0
 18 20  4  0  0  0  0
  2 21  1  0  0  0  0
 15 21  4  0  0  0  0
 20 21  4  0  0  0  0
  4 22  1  0  0  0  0
  7 23  1  0  0  0  0
  8 24  1  0  0  0  0
 10 25  1  0  0  0  0
 12 26  1  0  0  0  0
 13 27  1  0  0  0  0
 16 28  1  0  0  0  0
 17 29  1  0  0  0  0
 19 30  1  0  0  0  0
 20 31  1  0  0  0  0
 33 34  1  0  0  0  0
 35 36  2  0  0  0  0
 37 38  2  0  0  0  0
 32 39  1  0  0  0  0
 33 39  1  0  0  0  0
 33 40  1  0  0  0  0
 39 40  1  0  0  0  0
 34 41  1  0  0  0  0
 35 42  1  0  0  0  0
 41 42  1  0  0  0  0
 36 43  1  0  0  0  0
 37 43  1  0  0  0  0
 37 44  1  0  0  0  0
 43 44  1  0  0  0  0
 37 45  1  0  0  0  0
 38 45  1  0  0  0  0
 44 45  1  0  0  0  0
 40 46  1  0  0  0  0
 40 47  1  0  0  0  0
 46 47  1  0  0  0  0
 33 48  1  0  0  0  0
 34 48  1  0  0  0  0
 47 48  1  0  0  0  0
 34 49  1  0  0  0  0
 41 49  1  0  0  0  0
 48 49  1  0  0  0  0
 41 50  1  0  0  0  0
 42 50  1  0  0  0  0
 49 50  1  0  0  0  0
 35 51  1  0  0  0  0
 42 51  1  0  0  0  0
 50 51  1  0  0  0  0
 36 52  1  0  0  0  0
 43 52  1  0  0  0  0
 43 53  1  0  0  0  0
 44 53  1  0  0  0  0
 52 53  1  0  0  0  0
 44 54  1  0  0  0  0
 53 54  1  0  0  0  0
 54 55  1  0  0  0  0
 46 56  1  0  0  0  0
 47 56  1  0  0  0  0
 48 57  1  0  0  0  0
 49 57  1  0  0  0  0
 49 58  1  0  0  0  0
 50 58  1  0  0  0  0
 57 58  1  0  0  0  0
 51 59  1  0  0  0  0
 52 59  1  0  0  0  0
 52 60  1  0  0  0  0
 53 60  1  0  0  0  0
 59 60  1  0  0  0  0
 54 61  1  0  0  0  0
 55 61  1  0  0  0  0
 55 62  1  0  0  0  0
 61 62  1  0  0  0  0
 56 63  1  0  0  0  0
 56 64  1  0  0  0  0
 63 64  1  0  0  0  0
 57 65  1  0  0  0  0
 58 66  1  0  0  0  0
 59 67  1  0  0  0  0
 60 68  1  0  0  0  0
 67 68  1  0  0  0  0
 61 69  1  0  0  0  0
 63 70  1  0  0  0  0
 64 70  1  0  0  0  0
 64 71  1  0  0  0  0
 65 71  1  0  0  0  0
 70 71  1  0  0  0  0
 65 72  1  0  0  0  0
 71 72  1  0  0  0  0
 65 73  1  0  0  0  0
 66 73  1  0  0  0  0
 72 73  1  0  0  0  0
 66 74  1  0  0  0  0
 73 74  1  0  0  0  0
 66 75  1  0  0  0  0
 67 75  1  0  0  0  0
 74 75  1  0  0  0  0
 67 76  1  0  0  0  0
 68 76  1  0  0  0  0
 75 76  1  0  0  0  0
 68 77  1  0  0  0  0
 76 77  1  0  0  0  0
 69 78  1  0  0  0  0
 77 78  1  0  0  0  0
 78 79  1  0  0  0  0
 79 80  1  0  0  0  0
 55 81  1  0  0  0  0
 69 82  1  0  0  0  0
 32 83  1  0  0  0  0
 70 84  1  0  0  0  0
 62 85  1  0  0  0  0
 46 86  1  0  0  0  0
 38 87  1  0  0  0  0
 63 88  1  0  0  0  0
 45 89  1  0  0  0  0
 79 90  1  0  0  0  0
 32 91  1  0  0  0  0
M  END
