 xtb: 6.7.1pre (5071a88)
          08312620233D

 91126  0     0  0            999 V2000
   -1.9092   -0.5646    0.6226 O   0  0  0  0  0  0  0  0  0  0  0  0
   -1.5449   -0.3593    1.7761 C   0  0  0  0  0  0  0  0  0  0  0  0
   -0.0986   -0.3582    2.1043 C   0  0  0  0  0  0  0  0  0  0  0  0
    0.7769   -0.6086    1.0627 O   0  0  0  0  0  0  0  0  0  0  0  0
    0.2771   -0.1337    3.3774 C   0  0  0  0  0  0  0  0  0  0  0  0
    1.6898   -0.1271    3.8190 C   0  0  0  0  0  0  0  0  0  0  0  0
    2.0502   -0.7960    5.0049 C   0  0  0  0  0  0  0  0  0  0  0  0
    3.3707   -0.7885    5.4630 C   0  0  0  0  0  0  0  0  0  0  0  0
    4.3329   -0.1071    4.7364 C   0  0  0  0  0  0  0  0  0  0  0  0
    5.6235   -0.0985    5.1808 O   0  0  0  0  0  0  0  0  0  0  0  0
    3.9958    0.5645    3.5655 C   0  0  0  0  0  0  0  0  0  0  0  0
    4.9960    1.2161    2.8965 O   0  0  0  0  0  0  0  0  0  0  0  0
    2.6824    0.5657    3.1049 C   0  0  0  0  0  0  0  0  0  0  0  0
   -0.6154    0.0931    4.4194 O   0  0  0  0  0  0  0  0  0  0  0  0
   -1.9592    0.1064    4.1501 C   0  0  0  0  0  0  0  0  0  0  0  0
   -2.8215    0.3475    5.2189 C   0  0  0  0  0  0  0  0  0  0  0  0
   -4.2010    0.3708    5.0040 C   0  0  0  0  0  0  0  0  0  0  0  0
   -4.7080    0.1531    3.7252 C   0  0  0  0  0  0  0  0  0  0  0  0
   -6.0612    0.1855    3.5677 O   0  0  0  0  0  0  0  0  0  0  0  0
   -3.8590   -0.0882    2.6511 C   0  0  0  0  0  0  0  0  0  0  0  0
   -2.4793   -0.1090    2.8771 C   0  0  0  0  0  0  0  0  0  0  0  0
    0.2016   -0.7732    0.2846 H   0  0  0  0  0  0  0  0  0  0  0  0
    1.3015   -1.3357    5.5815 H   0  0  0  0  0  0  0  0  0  0  0  0
    3.6427   -1.3093    6.3758 H   0  0  0  0  0  0  0  0  0  0  0  0
    6.1061    0.4332    4.5168 H   0  0  0  0  0  0  0  0  0  0  0  0
    4.6184    1.5871    2.0801 H   0  0  0  0  0  0  0  0  0  0  0  0
    2.4220    1.1011    2.1968 H   0  0  0  0  0  0  0  0  0  0  0  0
   -2.4249    0.5175    6.2166 H   0  0  0  0  0  0  0  0  0  0  0  0
   -4.8802    0.5583    5.8320 H   0  0  0  0  0  0  0  0  0  0  0  0
   -6.2780    0.0163    2.6352 H   0  0  0  0  0  0  0  0  0  0  0  0
   -4.2471   -0.2589    1.6512 H   0  0  0  0  0  0  0  0  0  0  0  0
   -7.5000   -4.5000    0.0000 B   0  0  0  0  0  0  0  0  0  0  0  0
   -4.5000   -4.5000    0.0000 B   0  0  0  0  0  0  0  0  0  0  0  0
   -1.5000   -4.5000    0.0000 B   0  0  0  0  0  0  0  0  0  0  0  0
    1.5000   -4.5000    0.0000 B   0  0  0  0  0  0  0  0  0  0  0  0
    4.5000   -4.5000    0.0000 B   0  0  0  0  0  0  0  0  0  0  0  0
    7.5000   -4.5000    0.0000 B   0  0  0  0  0  0  0  0  0  0  0  0
   -7.5000   -3.0000    0.0000 B   0  0  0  0  0  0  0  0  0  0  0  0
   -4.5000   -3.0000    0.0000 B   0  0  0  0  0  0  0  0  0  0  0  0
   -1.5000   -3.0000    0.0000 B   0  0  0  0  0  0  0  0  0  0  0  0
    1.5000   -3.0000    0.0000 B   0  0  0  0  0  0  0  0  0  0  0  0
    4.5000   -3.0000    0.0000 B   0  0  0  0  0  0  0  0  0  0  0  0
    7.5000   -3.0000    0.0000 B   0  0  0  0  0  0  0  0  0  0  0  0
   -7.5000   -1.5000    0.0000 B   0  0  0  0  0  0  0  0  0  0  0  0
   -4.5000   -1.5000    0.0000 B   0  0  0  0  0  0  0  0  0  0  0  0
   -1.5000   -1.5000    0.0000 B   0  0  0  0  0  0  0  0  0  0  0  0
    1.5000   -1.5000    0.0000 B   0  0  0  0  0  0  0  0  0  0  0  0
    4.5000   -1.5000    0.0000 B   0  0  0  0  0  0  0  0  0  0  0  0
    7.5000   -1.5000    0.0000 B   0  0  0  0  0  0  0  0  0  0  0  0
   -7.5000    0.0000    0.0000 B   0  0  0  0  0  0  0  0  0  0  0  0
   -4.5000    0.0000    0.0000 B   0  0  0  0  0  0  0  0  0  0  0  0
   -1.5000    0.0000    0.0000 B   0  0  0  0  0  0  0  0  0  0  0  0
    1.5000    0.0000    0.0000 B   0  0  0  0  0  0  0  0  0  0  0  0
    4.5000    0.0000    0.0000 B   0  0  0  0  0  0  0  0  0  0  0  0
    7.5000    0.0000    0.0000 B   0  0  0  0  0  0  0  0  0  0  0  0
   -7.5000    1.5000    0.0000 B   0  0  0  0  0  0  0  0  0  0  0  0
   -4.5000    1.5000    0.0000 B   0  0  0  0  0  0  0  0  0  0  0  0
   -1.5000    1.5000    0.0000 B   0  0  0  0  0  0  0  0  0  0  0  0
    1.5000    1.5000    0.0000 B   0  0  0  0  0  0  0  0  0  0  0  0
    4.5000    1.5000    0.0000 B   0  0  0  0  0  0  0  0  0  0  0  0
    7.5000    1.5000    0.0000 B   0  0  0  0  0  0  0  0  0  0  0  0
   -7.5000    3.0000    0.0000 B   0  0  0  0  0  0  0  0  0  0  0  0
   -4.5000    3.0000    0.0000 B   0  0  0  0  0  0  0  0  0  0  0  0
   -1.5000    3.0000    0.0000 B   0  0  0  0  0  0  0  0  0  0  0  0
    1.5000    3.0000    0.0000 B   0  0  0  0  0  0  0  0  0  0  0  0
    4.5000    3.0000    0.0000 B   0  0  0  0  0  0  0  0  0  0  0  0
    7.5000    3.0000    0.0000 B   0  0  0  0  0  0  0  0  0  0  0  0
   -7.5000    4.5000    0.0000 B   0  0  0  0  0  0  0  0  0  0  0  0
   -4.5000    4.5000    0.0000 B   0  0  0  0  0  0  0  0  0  0  0  0
   -1.5000    4.5000    0.0000 B   0  0  0  0  0  0  0  0  0  0  0  0
    1.5000    4.5000    0.0000 B   0  0  0  0  0  0  0  0  0  0  0  0
    4.5000    4.5000    0.0000 B   0  0  0  0  0  0  0  0  0  0  0  0
    7.5000    4.5000    0.0000 B   0  0  0  0  0  0  0  0  0  0  0  0
   -6.0000   -3.7500    0.0000 B   0  0  0  0  0  0  0  0  0  0  0  0
   -3.0000   -3.7500    0.0000 B   0  0  0  0  0  0  0  0  0  0  0  0
    0.0000   -3.7500    0.0000 B   0  0  0  0  0  0  0  0  0  0  0  0
    3.0000   -3.7500    0.0000 B   0  0  0  0  0  0  0  0  0  0  0  0
    6.0000   -3.7500    0.0000 B   0  0  0  0  0  0  0  0  0  0  0  0
   -6.0000    3.7500    0.0000 B   0  0  0  0  0  0  0  0  0  0  0  0
   -3.0000    3.7500    0.0000 B   0  0  0  0  0  0  0  0  0  0  0  0
    0.0000    3.7500    0.0000 B   0  0  0  0  0  0  0  0  0  0  0  0
    3.0000    3.7500    0.0000 B   0  0  0  0  0  0  0  0  0  0  0  0
    6.0000    3.7500    0.0000 B   0  0  0  0  0  0  0  0  0  0  0  0
   -6.0000    0.0000    0.0000 B   0  0  0  0  0  0  0  0  0  0  0  0
   -8.6000   -4.5000    0.0000 H   0  0  0  0  0  0  0  0  0  0  0  0
   -8.6000   -1.5000    0.0000 H   0  0  0  0  0  0  0  0  0  0  0  0
   -8.6000    1.5000    0.0000 H   0  0  0  0  0  0  0  0  0  0  0  0
   -8.6000    4.5000    0.0000 H   0  0  0  0  0  0  0  0  0  0  0  0
    8.6000   -4.5000    0.0000 H   0  0  0  0  0  0  0  0  0  0  0  0
    8.6000   -1.5000    0.0000 H   0  0  0  0  0  0  0  0  0  0  0  0
    8.6000    1.5000    0.0000 H   0  0  0  0  0  0  0  0  0  0  0  0
  1  2  1  0  0  0  0
  2  3  1  0  0  0  0
  3  4  1  0  0  0  0
  3  5  2  0  0  0  0
  5  6  1  0  0  0  0
  6  7  4  0  0  0  0
  7  8  4  0  0  0  0
  8  9  4  0  0  0  0
  9 10  1  0  0  0  0
  9 11  4  0  0  0  0
 11 12  1  0  0  0  0
  6 13  4  0  0  0  0
 11 13  4  0  0  0  0
  5 14  1  0  0  0  0
 14 15  1  0  0  0  0
 15 16  4  0  0  0  0
 16 17  4  0  0  0  0
 17 18  4  0  0  0  0
 18 19  1  0  0  0  0
 18 20  4  0  0  0  0
  2 21  1  0  0  0  0
 15 21  4  0  0  0  0
 20 21  4  0  0  0  0
  4 22  1  0  0  0  0
  7 23  1  0  0  0  0
  8 24  1  0  0  0  0
 10 25  1  0  0  0  0
 12 26  1  0  0  0  0
 13 27  1  0  0  0  0
 16 28  1  0  0  0  0
 17 29  1  0  0  0  0
 19 30  1  0  0  0  0
 20 31  1  0  0  0  0
 32 38  1  0  0  0  0
 33 39  1  0  0  0  0
 34 40  1  0  0  0  0
 35 41  1  0  0  0  0
 36 42  1  0  0  0  0
 37 43  1  0  0  0  0
 38 44  1  0  0  0  0
 39 45  1  0  0  0  0
  1 46  1  0  0  0  0
 40 46  1  0  0  0  0
  4 47  1  0  0  0  0
 41 47  1  0  0  0  0
 42 48  1  0  0  0  0
 43 49  1  0  0  0  0
 44 50  1  0  0  0  0
 45 51  1  0  0  0  0
  1 52  1  0  0  0  0
 46 52  1  0  0  0  0
  4 53  1  0  0  0  0
 47 53  1  0  0  0  0
 48 54  2  0  0  0  0
 49 55  1  0  0  0  0
 50 56  1  0  0  0  0
 51 57  1  0  0  0  0
 52 58  1  0  0  0  0
 53 59  2  0  0  0  0
 54 60  2  0  0  0  0
 55 61  2  0  0  0  0
 56 62  1  0  0  0  0
 57 63  1  0  0  0  0
 58 64  1  0  0  0  0
 59 65  1  0  0  0  0
 60 66  1  0  0  0  0
 61 67  1  0  0  0  0
 62 68  1  0  0  0  0
 63 69  1  0  0  0  0
 64 70  1  0  0  0  0
 65 71  1  0  0  0  0
 66 72  1  0  0  0  0
 67 73  2  0  0  0  0
 32 74  1  0  0  0  0
 33 74  1  0  0  0  0
 38 74  1  0  0  0  0
 39 74  1  0  0  0  0
 33 75  1  0  0  0  0
 34 75  1  0  0  0  0
 39 75  1  0  0  0  0
 40 75  1  0  0  0  0
 34 76  1  0  0  0  0
 35 76  1  0  0  0  0
 40 76  1  0  0  0  0
 41 76  1  0  0  0  0
 35 77  1  0  0  0  0
 36 77  1  0  0  0  0
 41 77  1  0  0  0  0
 42 77  1  0  0  0  0
 36 78  1  0  0  0  0
 37 78  1  0  0  0  0
 42 78  1  0  0  0  0
 43 78  1  0  0  0  0
 62 79  1  0  0  0  0
 63 79  1  0  0  0  0
 68 79  1  0  0  0  0
 69 79  1  0  0  0  0
 63 80  1  0  0  0  0
 64 80  1  0  0  0  0
 69 80  1  0  0  0  0
 70 80  1  0  0  0  0
 64 81  1  0  0  0  0
 65 81  1  0  0  0  0
 70 81  1  0  0  0  0
 71 81  1  0  0  0  0
 65 82  1  0  0  0  0
 66 82  1  0  0  0  0
 71 82  1  0  0  0  0
 72 82  1  0  0  0  0
 66 83  1  0  0  0  0
 67 83  1  0  0  0  0
 72 83  1  0  0  0  0
 73 83  1  0  0  0  0
 44 84  1  0  0  0  0
 45 84  1  0  0  0  0
 50 84  1  0  0  0  0
 51 84  1  0  0  0  0
 56 84  1  0  0  0  0
 57 84  1  0  0  0  0
 32 85  1  0  0  0  0
 44 86  1  0  0  0  0
 56 87  1  0  0  0  0
 68 88  1  0  0  0  0
 37 89  1  0  0  0  0
 49 90  1  0  0  0  0
 61 91  1  0  0  0  0
M  END
