 xtb: 6.7.1 (edcfbbe)
          09242620033D

 60110  0     0  0            999 V2000
   -6.0090    3.2312    0.3813 B   0  0  0  0  0  0  0  0  0  0  0  0
   -5.9277    1.5450    0.0838 B   0  0  0  0  0  0  0  0  0  0  0  0
   -4.5992    4.1314   -0.0273 B   0  0  0  0  0  0  0  0  0  0  0  0
   -4.5160    2.4556    0.1681 B   0  0  0  0  0  0  0  0  0  0  0  0
   -4.4278    0.7631    0.2815 B   0  0  0  0  0  0  0  0  0  0  0  0
   -5.7569   -1.8478    0.1980 B   0  0  0  0  0  0  0  0  0  0  0  0
   -5.6696   -3.5096    0.6097 B   0  0  0  0  0  0  0  0  0  0  0  0
   -4.3437   -0.9079    0.3373 B   0  0  0  0  0  0  0  0  0  0  0  0
   -4.2612   -2.6044    0.3408 B   0  0  0  0  0  0  0  0  0  0  0  0
   -4.1752   -4.2894    0.2582 B   0  0  0  0  0  0  0  0  0  0  0  0
   -3.0871    3.3837    0.1254 B   0  0  0  0  0  0  0  0  0  0  0  0
   -3.0039    1.6796    0.2380 B   0  0  0  0  0  0  0  0  0  0  0  0
   -1.6691    4.2895    0.3377 B   0  0  0  0  0  0  0  0  0  0  0  0
   -1.5865    2.6051    0.2222 B   0  0  0  0  0  0  0  0  0  0  0  0
   -1.5021    0.9087    0.1262 B   0  0  0  0  0  0  0  0  0  0  0  0
   -2.8349   -1.6776    0.3503 B   0  0  0  0  0  0  0  0  0  0  0  0
   -2.7463   -3.3853    0.3540 B   0  0  0  0  0  0  0  0  0  0  0  0
   -1.4176   -0.7692    0.1825 B   0  0  0  0  0  0  0  0  0  0  0  0
   -1.3318   -2.4558    0.3828 B   0  0  0  0  0  0  0  0  0  0  0  0
   -1.2454   -4.1278    0.6211 B   0  0  0  0  0  0  0  0  0  0  0  0
   -0.1650    3.5299    0.1409 B   0  0  0  0  0  0  0  0  0  0  0  0
   -0.0796    1.8244    0.1517 B   0  0  0  0  0  0  0  0  0  0  0  0
    1.2539    4.4254   -0.0890 B   0  0  0  0  0  0  0  0  0  0  0  0
    1.3404    2.7483    0.0861 B   0  0  0  0  0  0  0  0  0  0  0  0
    1.4257    1.0591    0.2226 B   0  0  0  0  0  0  0  0  0  0  0  0
    0.0896   -1.5337    0.2663 B   0  0  0  0  0  0  0  0  0  0  0  0
    0.1758   -3.2359    0.3736 B   0  0  0  0  0  0  0  0  0  0  0  0
    1.5102   -0.6181    0.2814 B   0  0  0  0  0  0  0  0  0  0  0  0
    1.5954   -2.3125    0.2727 B   0  0  0  0  0  0  0  0  0  0  0  0
    1.6785   -3.9981    0.2110 B   0  0  0  0  0  0  0  0  0  0  0  0
    2.7572    3.6785    0.1486 B   0  0  0  0  0  0  0  0  0  0  0  0
    2.8458    1.9694    0.0915 B   0  0  0  0  0  0  0  0  0  0  0  0
    4.1837    4.5817    0.2565 B   0  0  0  0  0  0  0  0  0  0  0  0
    4.2695    2.8974    0.1500 B   0  0  0  0  0  0  0  0  0  0  0  0
    4.3521    1.1999    0.1196 B   0  0  0  0  0  0  0  0  0  0  0  0
    3.0149   -1.3882    0.2113 B   0  0  0  0  0  0  0  0  0  0  0  0
    3.0982   -3.0892    0.3903 B   0  0  0  0  0  0  0  0  0  0  0  0
    4.4363   -0.4713    0.1797 B   0  0  0  0  0  0  0  0  0  0  0  0
    4.5244   -2.1620    0.3309 B   0  0  0  0  0  0  0  0  0  0  0  0
    4.6076   -3.8344    0.5605 B   0  0  0  0  0  0  0  0  0  0  0  0
    5.6812    3.8045   -0.1047 B   0  0  0  0  0  0  0  0  0  0  0  0
    5.7676    2.1404    0.2870 B   0  0  0  0  0  0  0  0  0  0  0  0
    5.9385   -1.2509    0.4075 B   0  0  0  0  0  0  0  0  0  0  0  0
    6.0209   -2.9388    0.1371 B   0  0  0  0  0  0  0  0  0  0  0  0
   -6.9699    3.7779    0.7747 H   0  0  0  0  0  0  0  0  0  0  0  0
   -6.8636    0.9889   -0.3446 H   0  0  0  0  0  0  0  0  0  0  0  0
   -4.7161    5.2348   -0.4146 H   0  0  0  0  0  0  0  0  0  0  0  0
   -6.7422   -1.4186   -0.2639 H   0  0  0  0  0  0  0  0  0  0  0  0
   -6.5722   -4.1218    1.0427 H   0  0  0  0  0  0  0  0  0  0  0  0
   -4.1799   -5.4227   -0.0528 H   0  0  0  0  0  0  0  0  0  0  0  0
   -1.7310    5.4324    0.6083 H   0  0  0  0  0  0  0  0  0  0  0  0
   -1.1936   -5.2531    0.9589 H   0  0  0  0  0  0  0  0  0  0  0  0
    1.2011    5.5618   -0.3876 H   0  0  0  0  0  0  0  0  0  0  0  0
    1.7423   -5.1543    0.0047 H   0  0  0  0  0  0  0  0  0  0  0  0
    4.1914    5.7097    0.5862 H   0  0  0  0  0  0  0  0  0  0  0  0
    4.7277   -4.9281    0.9732 H   0  0  0  0  0  0  0  0  0  0  0  0
    6.5802    4.4259   -0.5320 H   0  0  0  0  0  0  0  0  0  0  0  0
    6.7447    1.7050    0.7602 H   0  0  0  0  0  0  0  0  0  0  0  0
    6.8658   -0.6864    0.8429 H   0  0  0  0  0  0  0  0  0  0  0  0
    6.9789   -3.4961   -0.2484 H   0  0  0  0  0  0  0  0  0  0  0  0
  1  2  1  0  0  0  0
  1  3  1  0  0  0  0
  1  4  1  0  0  0  0
  2  4  1  0  0  0  0
  3  4  1  0  0  0  0
  2  5  1  0  0  0  0
  4  5  1  0  0  0  0
  6  7  1  0  0  0  0
  5  8  1  0  0  0  0
  6  8  1  0  0  0  0
  6  9  1  0  0  0  0
  7  9  1  0  0  0  0
  8  9  1  0  0  0  0
  7 10  1  0  0  0  0
  9 10  1  0  0  0  0
  3 11  1  0  0  0  0
  4 11  1  0  0  0  0
  4 12  1  0  0  0  0
  5 12  1  0  0  0  0
 11 12  1  0  0  0  0
 11 13  1  0  0  0  0
 11 14  1  0  0  0  0
 12 14  1  0  0  0  0
 13 14  1  0  0  0  0
 12 15  1  0  0  0  0
 14 15  1  0  0  0  0
  8 16  1  0  0  0  0
  9 16  1  0  0  0  0
  9 17  1  0  0  0  0
 10 17  1  0  0  0  0
 16 17  1  0  0  0  0
 15 18  1  0  0  0  0
 16 18  1  0  0  0  0
 16 19  1  0  0  0  0
 17 19  1  0  0  0  0
 18 19  1  0  0  0  0
 17 20  1  0  0  0  0
 19 20  1  0  0  0  0
 13 21  1  0  0  0  0
 14 21  1  0  0  0  0
 14 22  1  0  0  0  0
 15 22  1  0  0  0  0
 21 22  1  0  0  0  0
 21 23  1  0  0  0  0
 21 24  1  0  0  0  0
 22 24  1  0  0  0  0
 23 24  1  0  0  0  0
 22 25  1  0  0  0  0
 24 25  1  0  0  0  0
 18 26  1  0  0  0  0
 19 26  1  0  0  0  0
 19 27  1  0  0  0  0
 20 27  1  0  0  0  0
 26 27  1  0  0  0  0
 25 28  1  0  0  0  0
 26 28  1  0  0  0  0
 26 29  1  0  0  0  0
 27 29  1  0  0  0  0
 28 29  1  0  0  0  0
 27 30  1  0  0  0  0
 29 30  1  0  0  0  0
 23 31  1  0  0  0  0
 24 31  1  0  0  0  0
 24 32  1  0  0  0  0
 25 32  1  0  0  0  0
 31 32  1  0  0  0  0
 31 33  1  0  0  0  0
 31 34  1  0  0  0  0
 32 34  1  0  0  0  0
 33 34  1  0  0  0  0
 32 35  1  0  0  0  0
 34 35  1  0  0  0  0
 28 36  1  0  0  0  0
 29 36  1  0  0  0  0
 29 37  1  0  0  0  0
 30 37  1  0  0  0  0
 36 37  1  0  0  0  0
 35 38  1  0  0  0  0
 36 38  1  0  0  0  0
 36 39  1  0  0  0  0
 37 39  1  0  0  0  0
 38 39  1  0  0  0  0
 37 40  1  0  0  0  0
 39 40  1  0  0  0  0
 33 41  1  0  0  0  0
 34 41  1  0  0  0  0
 34 42  1  0  0  0  0
 35 42  1  0  0  0  0
 41 42  1  0  0  0  0
 38 43  1  0  0  0  0
 39 43  1  0  0  0  0
 39 44  1  0  0  0  0
 40 44  1  0  0  0  0
 43 44  1  0  0  0  0
  1 45  1  0  0  0  0
  2 46  1  0  0  0  0
  3 47  1  0  0  0  0
  6 48  1  0  0  0  0
  7 49  1  0  0  0  0
 10 50  1  0  0  0  0
 13 51  1  0  0  0  0
 20 52  1  0  0  0  0
 23 53  1  0  0  0  0
 30 54  1  0  0  0  0
 33 55  1  0  0  0  0
 40 56  1  0  0  0  0
 41 57  1  0  0  0  0
 42 58  1  0  0  0  0
 43 59  1  0  0  0  0
 44 60  1  0  0  0  0
M  END
