 xtb: 6.7.1 (edcfbbe)
          09242615543D

 29 31  0     0  0            999 V2000
    0.8191    2.3075    0.8011 N   0  0  0  0  0  0  0  0  0  0  0  0
    0.6038    1.0145    0.3863 C   0  0  0  0  0  0  0  0  0  0  0  0
   -0.6771    0.5750    0.0685 C   0  0  0  0  0  0  0  0  0  0  0  0
   -0.8466   -0.7622   -0.3328 C   0  0  0  0  0  0  0  0  0  0  0  0
    0.1438   -1.6133   -0.4544 N   0  0  0  0  0  0  0  0  0  0  0  0
    1.3990   -1.2015   -0.2106 C   0  0  0  0  0  0  0  0  0  0  0  0
    2.4481   -2.1288   -0.3824 C   0  0  0  0  0  0  0  0  0  0  0  0
    3.7441   -1.7642   -0.1522 C   0  0  0  0  0  0  0  0  0  0  0  0
    4.0465   -0.4589    0.2593 C   0  0  0  0  0  0  0  0  0  0  0  0
    3.0493    0.4606    0.4404 C   0  0  0  0  0  0  0  0  0  0  0  0
    1.7012    0.1198    0.2155 C   0  0  0  0  0  0  0  0  0  0  0  0
   -2.2068   -1.3131   -0.6599 C   0  0  0  0  0  0  0  0  0  0  0  0
   -3.3331   -0.4674   -0.0826 C   0  0  0  0  0  0  0  0  0  0  0  0
   -3.1085    0.9858   -0.4776 C   0  0  0  0  0  0  0  0  0  0  0  0
   -1.8475    1.5172    0.1963 C   0  0  0  0  0  0  0  0  0  0  0  0
    0.0350    2.7938    1.2008 H   0  0  0  0  0  0  0  0  0  0  0  0
    1.7017    2.5012    1.2419 H   0  0  0  0  0  0  0  0  0  0  0  0
    2.1860   -3.1240   -0.7056 H   0  0  0  0  0  0  0  0  0  0  0  0
    4.5453   -2.4760   -0.2885 H   0  0  0  0  0  0  0  0  0  0  0  0
    5.0759   -0.1798    0.4316 H   0  0  0  0  0  0  0  0  0  0  0  0
    3.3142    1.4644    0.7437 H   0  0  0  0  0  0  0  0  0  0  0  0
   -2.2542   -2.3420   -0.3005 H   0  0  0  0  0  0  0  0  0  0  0  0
   -2.2988   -1.3503   -1.7498 H   0  0  0  0  0  0  0  0  0  0  0  0
   -3.3437   -0.5532    1.0065 H   0  0  0  0  0  0  0  0  0  0  0  0
   -4.2946   -0.8225   -0.4584 H   0  0  0  0  0  0  0  0  0  0  0  0
   -2.9982    1.0488   -1.5624 H   0  0  0  0  0  0  0  0  0  0  0  0
   -3.9628    1.6025   -0.1900 H   0  0  0  0  0  0  0  0  0  0  0  0
   -2.0562    1.6829    1.2613 H   0  0  0  0  0  0  0  0  0  0  0  0
   -1.5848    2.4832   -0.2455 H   0  0  0  0  0  0  0  0  0  0  0  0
  1  2  1  0  0  0  0
  2  3  4  0  0  0  0
  3  4  4  0  0  0  0
  4  5  4  0  0  0  0
  5  6  4  0  0  0  0
  6  7  4  0  0  0  0
  7  8  2  0  0  0  0
  8  9  4  0  0  0  0
  9 10  2  0  0  0  0
  2 11  4  0  0  0  0
  6 11  4  0  0  0  0
 10 11  4  0  0  0  0
  4 12  1  0  0  0  0
 12 13  1  0  0  0  0
 13 14  1  0  0  0  0
  3 15  1  0  0  0  0
 14 15  1  0  0  0  0
  1 16  1  0  0  0  0
  1 17  1  0  0  0  0
  7 18  1  0  0  0  0
  8 19  1  0  0  0  0
  9 20  1  0  0  0  0
 10 21  1  0  0  0  0
 12 22  1  0  0  0  0
 12 23  1  0  0  0  0
 13 24  1  0  0  0  0
 13 25  1  0  0  0  0
 14 26  1  0  0  0  0
 14 27  1  0  0  0  0
 15 28  1  0  0  0  0
 15 29  1  0  0  0  0
M  END
