 xtb: 6.7.1 (edcfbbe)
          09242615183D

 47 48  0     0  0            999 V2000
   -5.6348   -1.9366    2.5064 C   0  0  0  0  0  0  0  0  0  0  0  0
   -6.2590   -1.4776    1.3328 O   0  0  0  0  0  0  0  0  0  0  0  0
   -5.5761   -0.5837    0.5404 C   0  0  0  0  0  0  0  0  0  0  0  0
   -4.3302   -0.0611    0.8074 C   0  0  0  0  0  0  0  0  0  0  0  0
   -3.7264    0.8386   -0.0836 C   0  0  0  0  0  0  0  0  0  0  0  0
   -2.4214    1.4131    0.1468 C   0  0  0  0  0  0  0  0  0  0  0  0
   -1.6416    1.2372    1.2284 C   0  0  0  0  0  0  0  0  0  0  0  0
   -0.3057    1.7893    1.4078 C   0  0  0  0  0  0  0  0  0  0  0  0
    0.4013    1.4618    2.3424 O   0  0  0  0  0  0  0  0  0  0  0  0
    0.2079    2.7623    0.3543 C   0  0  0  0  0  0  0  0  0  0  0  0
    0.6661    1.9425   -0.8461 C   0  0  0  0  0  0  0  0  0  0  0  0
    0.0395    1.9293   -1.8864 O   0  0  0  0  0  0  0  0  0  0  0  0
    1.8759    1.1669   -0.6027 C   0  0  0  0  0  0  0  0  0  0  0  0
    2.3798    0.3546   -1.5493 C   0  0  0  0  0  0  0  0  0  0  0  0
    3.5443   -0.4905   -1.4550 C   0  0  0  0  0  0  0  0  0  0  0  0
    3.8561   -1.3405   -2.5178 C   0  0  0  0  0  0  0  0  0  0  0  0
    4.9571   -2.1712   -2.4651 C   0  0  0  0  0  0  0  0  0  0  0  0
    5.7813   -2.1672   -1.3503 C   0  0  0  0  0  0  0  0  0  0  0  0
    6.8620   -2.9774   -1.2993 O   0  0  0  0  0  0  0  0  0  0  0  0
    5.4840   -1.3092   -0.2714 C   0  0  0  0  0  0  0  0  0  0  0  0
    6.3750   -1.3860    0.7731 O   0  0  0  0  0  0  0  0  0  0  0  0
    6.1696   -0.5471    1.8840 C   0  0  0  0  0  0  0  0  0  0  0  0
    4.3792   -0.4890   -0.3275 C   0  0  0  0  0  0  0  0  0  0  0  0
   -4.4148    1.1897   -1.2468 C   0  0  0  0  0  0  0  0  0  0  0  0
   -5.6672    0.6769   -1.5167 C   0  0  0  0  0  0  0  0  0  0  0  0
   -6.2623   -0.2104   -0.6333 C   0  0  0  0  0  0  0  0  0  0  0  0
   -7.4874   -0.7165   -0.8975 O   0  0  0  0  0  0  0  0  0  0  0  0
   -5.4469   -1.1162    3.2057 H   0  0  0  0  0  0  0  0  0  0  0  0
   -4.6948   -2.4502    2.2829 H   0  0  0  0  0  0  0  0  0  0  0  0
   -6.3334   -2.6407    2.9555 H   0  0  0  0  0  0  0  0  0  0  0  0
   -3.8047   -0.3471    1.7028 H   0  0  0  0  0  0  0  0  0  0  0  0
   -2.0639    2.0253   -0.6695 H   0  0  0  0  0  0  0  0  0  0  0  0
   -1.9589    0.6157    2.0551 H   0  0  0  0  0  0  0  0  0  0  0  0
    1.0597    3.2985    0.7737 H   0  0  0  0  0  0  0  0  0  0  0  0
   -0.5683    3.4634    0.0536 H   0  0  0  0  0  0  0  0  0  0  0  0
    2.3143    1.2582    0.3787 H   0  0  0  0  0  0  0  0  0  0  0  0
    1.8488    0.3219   -2.4938 H   0  0  0  0  0  0  0  0  0  0  0  0
    3.2222   -1.3510   -3.3913 H   0  0  0  0  0  0  0  0  0  0  0  0
    5.2007   -2.8332   -3.2803 H   0  0  0  0  0  0  0  0  0  0  0  0
    7.3081   -2.8326   -0.4527 H   0  0  0  0  0  0  0  0  0  0  0  0
    6.9865   -0.7631    2.5706 H   0  0  0  0  0  0  0  0  0  0  0  0
    6.2057    0.5082    1.5973 H   0  0  0  0  0  0  0  0  0  0  0  0
    5.2158   -0.7609    2.3751 H   0  0  0  0  0  0  0  0  0  0  0  0
    4.1476    0.1655    0.4956 H   0  0  0  0  0  0  0  0  0  0  0  0
   -3.9581    1.8734   -1.9458 H   0  0  0  0  0  0  0  0  0  0  0  0
   -6.2039    0.9475   -2.4115 H   0  0  0  0  0  0  0  0  0  0  0  0
   -7.7290   -1.3155   -0.1768 H   0  0  0  0  0  0  0  0  0  0  0  0
  1  2  1  0  0  0  0
  2  3  1  0  0  0  0
  3  4  4  0  0  0  0
  4  5  4  0  0  0  0
  5  6  1  0  0  0  0
  6  7  2  0  0  0  0
  7  8  1  0  0  0  0
  8  9  2  0  0  0  0
  8 10  1  0  0  0  0
 10 11  1  0  0  0  0
 11 12  2  0  0  0  0
 11 13  1  0  0  0  0
 13 14  2  0  0  0  0
 14 15  1  0  0  0  0
 15 16  4  0  0  0  0
 16 17  4  0  0  0  0
 17 18  4  0  0  0  0
 18 19  1  0  0  0  0
 18 20  4  0  0  0  0
 20 21  1  0  0  0  0
 21 22  1  0  0  0  0
 15 23  4  0  0  0  0
 20 23  4  0  0  0  0
  5 24  4  0  0  0  0
 24 25  4  0  0  0  0
  3 26  4  0  0  0  0
 25 26  4  0  0  0  0
 26 27  1  0  0  0  0
  1 28  1  0  0  0  0
  1 29  1  0  0  0  0
  1 30  1  0  0  0  0
  4 31  1  0  0  0  0
  6 32  1  0  0  0  0
  7 33  1  0  0  0  0
 10 34  1  0  0  0  0
 10 35  1  0  0  0  0
 13 36  1  0  0  0  0
 14 37  1  0  0  0  0
 16 38  1  0  0  0  0
 17 39  1  0  0  0  0
 19 40  1  0  0  0  0
 22 41  1  0  0  0  0
 22 42  1  0  0  0  0
 22 43  1  0  0  0  0
 23 44  1  0  0  0  0
 24 45  1  0  0  0  0
 25 46  1  0  0  0  0
 27 47  1  0  0  0  0
M  END
