 xtb: 6.7.1pre (5071a88)
          08312622043D

103157  0     0  0            999 V2000
   -2.7673    3.7883   10.2287 O   0  0  0  0  0  0  0  0  0  0  0  0
   -3.6043    2.9434   10.4791 C   0  0  0  0  0  0  0  0  0  0  0  0
   -4.4489    3.0532   11.5162 O   0  0  0  0  0  0  0  0  0  0  0  0
   -3.8626    1.6973    9.7480 C   0  0  0  0  0  0  0  0  0  0  0  0
   -3.1418    1.4104    8.6540 C   0  0  0  0  0  0  0  0  0  0  0  0
   -3.3127    0.1754    7.8763 C   0  0  0  0  0  0  0  0  0  0  0  0
   -4.5905   -0.2778    7.5042 C   0  0  0  0  0  0  0  0  0  0  0  0
   -4.7501   -1.4367    6.7314 C   0  0  0  0  0  0  0  0  0  0  0  0
   -3.6260   -2.1409    6.3155 C   0  0  0  0  0  0  0  0  0  0  0  0
   -3.7228   -3.2717    5.5528 O   0  0  0  0  0  0  0  0  0  0  0  0
   -2.3524   -1.7032    6.6629 C   0  0  0  0  0  0  0  0  0  0  0  0
   -1.2564   -2.4021    6.2333 O   0  0  0  0  0  0  0  0  0  0  0  0
   -2.1978   -0.5598    7.4455 C   0  0  0  0  0  0  0  0  0  0  0  0
   -0.9048   -0.1339    7.7571 O   0  0  0  0  0  0  0  0  0  0  0  0
   -0.3991   -0.8062    8.8587 C   0  0  0  0  0  0  0  0  0  0  0  0
   -1.0179   -1.5254    9.6395 O   0  0  0  0  0  0  0  0  0  0  0  0
    1.0772   -0.4581    9.0499 C   0  0  0  0  0  0  0  0  0  0  0  0
    1.9044   -0.9383    7.8512 C   0  0  0  0  0  0  0  0  0  0  0  0
    3.2085   -0.1807    7.7118 C   0  0  0  0  0  0  0  0  0  0  0  0
    3.3714    0.7685    6.6876 C   0  0  0  0  0  0  0  0  0  0  0  0
    4.5686    1.4765    6.5584 C   0  0  0  0  0  0  0  0  0  0  0  0
    5.5979    1.2364    7.4551 C   0  0  0  0  0  0  0  0  0  0  0  0
    6.7679    1.9297    7.3310 O   0  0  0  0  0  0  0  0  0  0  0  0
    5.4491    0.3025    8.4761 C   0  0  0  0  0  0  0  0  0  0  0  0
    6.5010    0.1192    9.3314 O   0  0  0  0  0  0  0  0  0  0  0  0
    4.2627   -0.4100    8.6109 C   0  0  0  0  0  0  0  0  0  0  0  0
    1.5805   -1.0798   10.2458 O   0  0  0  0  0  0  0  0  0  0  0  0
   -4.1956    3.9017   11.9359 H   0  0  0  0  0  0  0  0  0  0  0  0
   -4.6280    1.0410   10.1424 H   0  0  0  0  0  0  0  0  0  0  0  0
   -2.3607    2.0870    8.3104 H   0  0  0  0  0  0  0  0  0  0  0  0
   -5.4788    0.2758    7.8027 H   0  0  0  0  0  0  0  0  0  0  0  0
   -5.7510   -1.7602    6.4623 H   0  0  0  0  0  0  0  0  0  0  0  0
   -4.6658   -3.4655    5.4104 H   0  0  0  0  0  0  0  0  0  0  0  0
   -1.6282   -3.1539    5.7286 H   0  0  0  0  0  0  0  0  0  0  0  0
    1.1437    0.6259    9.1973 H   0  0  0  0  0  0  0  0  0  0  0  0
    1.3437   -0.8393    6.9141 H   0  0  0  0  0  0  0  0  0  0  0  0
    2.1367   -2.0069    7.9512 H   0  0  0  0  0  0  0  0  0  0  0  0
    2.5677    0.9627    5.9804 H   0  0  0  0  0  0  0  0  0  0  0  0
    4.6959    2.2081    5.7666 H   0  0  0  0  0  0  0  0  0  0  0  0
    7.3245    1.5938    8.0616 H   0  0  0  0  0  0  0  0  0  0  0  0
    6.2263   -0.5322   10.0002 H   0  0  0  0  0  0  0  0  0  0  0  0
    4.1384   -1.1383    9.4079 H   0  0  0  0  0  0  0  0  0  0  0  0
    0.7974   -1.3758   10.7539 H   0  0  0  0  0  0  0  0  0  0  0  0
   -6.3511   -2.8545   -0.3396 B   0  0  0  0  0  0  0  0  0  0  0  0
   -3.8632   -3.4276    0.8712 B   0  0  0  0  0  0  0  0  0  0  0  0
   -1.0552   -4.1651    1.9793 B   0  0  0  0  0  0  0  0  0  0  0  0
    1.6853   -4.2318    1.3549 B   0  0  0  0  0  0  0  0  0  0  0  0
    2.9703   -3.6923    0.6219 B   0  0  0  0  0  0  0  0  0  0  0  0
    5.9076   -3.8486   -0.3800 B   0  0  0  0  0  0  0  0  0  0  0  0
   -4.7612   -2.3307   -0.4078 B   0  0  0  0  0  0  0  0  0  0  0  0
   -2.6199   -2.2111    0.8442 B   0  0  0  0  0  0  0  0  0  0  0  0
   -1.2327   -2.3911    1.7792 B   0  0  0  0  0  0  0  0  0  0  0  0
    0.2814   -3.1446    1.2586 B   0  0  0  0  0  0  0  0  0  0  0  0
    3.1280   -2.1353    0.0337 B   0  0  0  0  0  0  0  0  0  0  0  0
    5.2824   -2.5807   -1.1427 B   0  0  0  0  0  0  0  0  0  0  0  0
   -4.3827   -1.0545   -1.3461 B   0  0  0  0  0  0  0  0  0  0  0  0
   -3.1924   -1.2685   -0.2398 B   0  0  0  0  0  0  0  0  0  0  0  0
   -0.7667   -0.9151    2.1471 B   0  0  0  0  0  0  0  0  0  0  0  0
    0.4341   -1.5098    0.8825 B   0  0  0  0  0  0  0  0  0  0  0  0
    4.2603   -1.2719   -0.6057 B   0  0  0  0  0  0  0  0  0  0  0  0
    6.8452   -2.4756   -0.8065 B   0  0  0  0  0  0  0  0  0  0  0  0
   -5.0072   -0.6437   -2.8496 B   0  0  0  0  0  0  0  0  0  0  0  0
   -3.1952    0.1543   -0.9257 B   0  0  0  0  0  0  0  0  0  0  0  0
   -0.9469    0.6233    2.2104 B   0  0  0  0  0  0  0  0  0  0  0  0
    0.0016   -0.0204    0.9084 B   0  0  0  0  0  0  0  0  0  0  0  0
    4.8754    0.2242   -0.5476 B   0  0  0  0  0  0  0  0  0  0  0  0
    5.8786   -1.0664   -1.1306 B   0  0  0  0  0  0  0  0  0  0  0  0
   -5.7672    0.8535   -2.9176 B   0  0  0  0  0  0  0  0  0  0  0  0
   -2.8971    1.6282   -0.7083 B   0  0  0  0  0  0  0  0  0  0  0  0
   -1.2399    2.1332    2.0889 B   0  0  0  0  0  0  0  0  0  0  0  0
    0.1883    1.5499    1.0540 B   0  0  0  0  0  0  0  0  0  0  0  0
    4.2581    1.5841    0.0647 B   0  0  0  0  0  0  0  0  0  0  0  0
    6.3075    0.4397   -1.6258 B   0  0  0  0  0  0  0  0  0  0  0  0
   -5.7341    1.7554   -1.4938 B   0  0  0  0  0  0  0  0  0  0  0  0
   -3.3469    2.9740   -0.1746 B   0  0  0  0  0  0  0  0  0  0  0  0
   -1.6646    3.6160    1.7973 B   0  0  0  0  0  0  0  0  0  0  0  0
   -0.0590    3.1640    1.3235 B   0  0  0  0  0  0  0  0  0  0  0  0
    2.9656    2.2589    0.6844 B   0  0  0  0  0  0  0  0  0  0  0  0
    5.7919    1.6725   -0.6985 B   0  0  0  0  0  0  0  0  0  0  0  0
   -6.6389    2.8000   -0.8422 B   0  0  0  0  0  0  0  0  0  0  0  0
   -4.4746    3.8873    0.5879 B   0  0  0  0  0  0  0  0  0  0  0  0
   -1.7771    5.1752    1.2154 B   0  0  0  0  0  0  0  0  0  0  0  0
    1.1754    4.4066    1.3290 B   0  0  0  0  0  0  0  0  0  0  0  0
    2.5938    3.9229    0.8796 B   0  0  0  0  0  0  0  0  0  0  0  0
    5.3509    2.9860   -0.0541 B   0  0  0  0  0  0  0  0  0  0  0  0
   -5.3190   -3.6348    0.4165 B   0  0  0  0  0  0  0  0  0  0  0  0
   -2.4877   -3.6329    1.6055 B   0  0  0  0  0  0  0  0  0  0  0  0
    0.3596   -4.7213    1.9063 B   0  0  0  0  0  0  0  0  0  0  0  0
    1.7215   -2.4162    0.7345 B   0  0  0  0  0  0  0  0  0  0  0  0
    4.3387   -3.4800   -0.0729 B   0  0  0  0  0  0  0  0  0  0  0  0
   -5.0953    2.8472   -0.3735 B   0  0  0  0  0  0  0  0  0  0  0  0
   -3.0345    4.3187    0.9326 B   0  0  0  0  0  0  0  0  0  0  0  0
   -0.2869    4.8951    1.4426 B   0  0  0  0  0  0  0  0  0  0  0  0
    1.4616    2.5482    0.9924 B   0  0  0  0  0  0  0  0  0  0  0  0
    4.0784    3.6198    0.5106 B   0  0  0  0  0  0  0  0  0  0  0  0
   -4.5957    0.5913   -1.8415 B   0  0  0  0  0  0  0  0  0  0  0  0
   -7.3684   -2.5027   -0.8103 H   0  0  0  0  0  0  0  0  0  0  0  0
   -4.9591   -1.3760   -3.7739 H   0  0  0  0  0  0  0  0  0  0  0  0
   -6.3246    1.2608   -3.8715 H   0  0  0  0  0  0  0  0  0  0  0  0
   -7.6134    3.4017   -0.5976 H   0  0  0  0  0  0  0  0  0  0  0  0
    6.3612   -4.9354   -0.3602 H   0  0  0  0  0  0  0  0  0  0  0  0
    8.0163   -2.4682   -0.9061 H   0  0  0  0  0  0  0  0  0  0  0  0
    6.9392    0.6146   -2.6128 H   0  0  0  0  0  0  0  0  0  0  0  0
  1  2  2  0  0  0  0
  2  3  1  0  0  0  0
  2  4  1  0  0  0  0
  4  5  2  0  0  0  0
  5  6  1  0  0  0  0
  6  7  4  0  0  0  0
  7  8  4  0  0  0  0
  8  9  4  0  0  0  0
  9 10  1  0  0  0  0
  9 11  4  0  0  0  0
 11 12  1  0  0  0  0
  6 13  4  0  0  0  0
 11 13  4  0  0  0  0
 13 14  1  0  0  0  0
 14 15  1  0  0  0  0
 15 16  2  0  0  0  0
 15 17  1  0  0  0  0
 17 18  1  0  0  0  0
 18 19  1  0  0  0  0
 19 20  4  0  0  0  0
 20 21  4  0  0  0  0
 21 22  4  0  0  0  0
 22 23  1  0  0  0  0
 22 24  4  0  0  0  0
 24 25  1  0  0  0  0
 19 26  4  0  0  0  0
 24 26  4  0  0  0  0
 17 27  1  0  0  0  0
  3 28  1  0  0  0  0
  4 29  1  0  0  0  0
  5 30  1  0  0  0  0
  7 31  1  0  0  0  0
  8 32  1  0  0  0  0
 10 33  1  0  0  0  0
 12 34  1  0  0  0  0
 17 35  1  0  0  0  0
 18 36  1  0  0  0  0
 18 37  1  0  0  0  0
 20 38  1  0  0  0  0
 21 39  1  0  0  0  0
 23 40  1  0  0  0  0
 25 41  1  0  0  0  0
 26 42  1  0  0  0  0
 27 43  1  0  0  0  0
 47 48  1  0  0  0  0
 44 50  1  0  0  0  0
 45 50  1  0  0  0  0
 45 51  1  0  0  0  0
 46 52  1  0  0  0  0
 51 52  1  0  0  0  0
 46 53  1  0  0  0  0
 47 53  1  0  0  0  0
 52 53  1  0  0  0  0
 48 54  1  0  0  0  0
 49 55  1  0  0  0  0
 50 56  1  0  0  0  0
 50 57  1  0  0  0  0
 51 57  1  0  0  0  0
 56 57  1  0  0  0  0
 52 58  1  0  0  0  0
 53 59  1  0  0  0  0
 58 59  1  0  0  0  0
 54 60  1  0  0  0  0
 55 60  1  0  0  0  0
 49 61  1  0  0  0  0
 55 61  1  0  0  0  0
 56 62  1  0  0  0  0
 56 63  1  0  0  0  0
 57 63  1  0  0  0  0
 58 64  1  0  0  0  0
 58 65  1  0  0  0  0
 59 65  1  0  0  0  0
 64 65  1  0  0  0  0
 60 66  1  0  0  0  0
 55 67  1  0  0  0  0
 60 67  1  0  0  0  0
 61 67  1  0  0  0  0
 66 67  1  0  0  0  0
 62 68  1  0  0  0  0
 63 69  1  0  0  0  0
 64 70  1  0  0  0  0
 64 71  1  0  0  0  0
 65 71  1  0  0  0  0
 70 71  1  0  0  0  0
 66 72  1  0  0  0  0
 66 73  1  0  0  0  0
 67 73  1  0  0  0  0
 68 74  1  0  0  0  0
 69 75  2  0  0  0  0
 70 76  1  0  0  0  0
 70 77  1  0  0  0  0
 71 77  1  0  0  0  0
 76 77  1  0  0  0  0
 72 78  1  0  0  0  0
 66 79  1  0  0  0  0
 72 79  1  0  0  0  0
 73 79  1  0  0  0  0
 74 80  1  0  0  0  0
 75 81  1  0  0  0  0
 76 82  1  0  0  0  0
 77 83  1  0  0  0  0
 78 84  1  0  0  0  0
 83 84  1  0  0  0  0
 72 85  1  0  0  0  0
 79 85  1  0  0  0  0
 44 86  2  0  0  0  0
 45 86  1  0  0  0  0
 50 86  1  0  0  0  0
 45 87  1  0  0  0  0
 46 87  1  0  0  0  0
 51 87  1  0  0  0  0
 52 87  1  0  0  0  0
 46 88  1  0  0  0  0
 47 88  1  0  0  0  0
 53 88  1  0  0  0  0
 47 89  1  0  0  0  0
 48 89  1  0  0  0  0
 53 89  1  0  0  0  0
 54 89  1  0  0  0  0
 59 89  1  0  0  0  0
 48 90  1  0  0  0  0
 49 90  1  0  0  0  0
 54 90  1  0  0  0  0
 55 90  1  0  0  0  0
 74 91  1  0  0  0  0
 75 91  1  0  0  0  0
 80 91  1  0  0  0  0
 81 91  1  0  0  0  0
 75 92  1  0  0  0  0
 76 92  1  0  0  0  0
 81 92  1  0  0  0  0
 82 92  1  0  0  0  0
 76 93  1  0  0  0  0
 77 93  1  0  0  0  0
 82 93  1  0  0  0  0
 83 93  1  0  0  0  0
 71 94  1  0  0  0  0
 77 94  1  0  0  0  0
 78 94  1  0  0  0  0
 83 94  1  0  0  0  0
 84 94  1  0  0  0  0
 72 95  1  0  0  0  0
 78 95  1  0  0  0  0
 84 95  1  0  0  0  0
 85 95  1  0  0  0  0
 56 96  1  0  0  0  0
 62 96  1  0  0  0  0
 63 96  1  0  0  0  0
 68 96  1  0  0  0  0
 74 96  1  0  0  0  0
 44 97  1  0  0  0  0
 62 98  1  0  0  0  0
 68 99  1  0  0  0  0
 80100  1  0  0  0  0
 49101  1  0  0  0  0
 61102  1  0  0  0  0
 73103  1  0  0  0  0
M  END
