 xtb: 6.7.1pre (5071a88)
          08312620233D

103136  0     0  0            999 V2000
   -2.7673    3.7883    5.5183 O   0  0  0  0  0  0  0  0  0  0  0  0
   -3.6043    2.9434    5.7687 C   0  0  0  0  0  0  0  0  0  0  0  0
   -4.4489    3.0532    6.8057 O   0  0  0  0  0  0  0  0  0  0  0  0
   -3.8626    1.6973    5.0376 C   0  0  0  0  0  0  0  0  0  0  0  0
   -3.1418    1.4104    3.9436 C   0  0  0  0  0  0  0  0  0  0  0  0
   -3.3127    0.1754    3.1659 C   0  0  0  0  0  0  0  0  0  0  0  0
   -4.5905   -0.2778    2.7938 C   0  0  0  0  0  0  0  0  0  0  0  0
   -4.7501   -1.4367    2.0210 C   0  0  0  0  0  0  0  0  0  0  0  0
   -3.6260   -2.1409    1.6051 C   0  0  0  0  0  0  0  0  0  0  0  0
   -3.7228   -3.2717    0.8424 O   0  0  0  0  0  0  0  0  0  0  0  0
   -2.3524   -1.7032    1.9525 C   0  0  0  0  0  0  0  0  0  0  0  0
   -1.2564   -2.4021    1.5229 O   0  0  0  0  0  0  0  0  0  0  0  0
   -2.1978   -0.5598    2.7351 C   0  0  0  0  0  0  0  0  0  0  0  0
   -0.9048   -0.1339    3.0467 O   0  0  0  0  0  0  0  0  0  0  0  0
   -0.3991   -0.8062    4.1483 C   0  0  0  0  0  0  0  0  0  0  0  0
   -1.0179   -1.5254    4.9291 O   0  0  0  0  0  0  0  0  0  0  0  0
    1.0772   -0.4581    4.3395 C   0  0  0  0  0  0  0  0  0  0  0  0
    1.9044   -0.9383    3.1408 C   0  0  0  0  0  0  0  0  0  0  0  0
    3.2085   -0.1807    3.0014 C   0  0  0  0  0  0  0  0  0  0  0  0
    3.3714    0.7685    1.9772 C   0  0  0  0  0  0  0  0  0  0  0  0
    4.5686    1.4765    1.8480 C   0  0  0  0  0  0  0  0  0  0  0  0
    5.5979    1.2364    2.7447 C   0  0  0  0  0  0  0  0  0  0  0  0
    6.7679    1.9297    2.6206 O   0  0  0  0  0  0  0  0  0  0  0  0
    5.4491    0.3025    3.7657 C   0  0  0  0  0  0  0  0  0  0  0  0
    6.5010    0.1192    4.6210 O   0  0  0  0  0  0  0  0  0  0  0  0
    4.2627   -0.4100    3.9005 C   0  0  0  0  0  0  0  0  0  0  0  0
    1.5805   -1.0798    5.5354 O   0  0  0  0  0  0  0  0  0  0  0  0
   -4.1956    3.9017    7.2255 H   0  0  0  0  0  0  0  0  0  0  0  0
   -4.6280    1.0410    5.4320 H   0  0  0  0  0  0  0  0  0  0  0  0
   -2.3607    2.0870    3.6000 H   0  0  0  0  0  0  0  0  0  0  0  0
   -5.4788    0.2758    3.0923 H   0  0  0  0  0  0  0  0  0  0  0  0
   -5.7510   -1.7602    1.7519 H   0  0  0  0  0  0  0  0  0  0  0  0
   -4.6658   -3.4655    0.7000 H   0  0  0  0  0  0  0  0  0  0  0  0
   -1.6282   -3.1539    1.0182 H   0  0  0  0  0  0  0  0  0  0  0  0
    1.1437    0.6259    4.4868 H   0  0  0  0  0  0  0  0  0  0  0  0
    1.3437   -0.8393    2.2037 H   0  0  0  0  0  0  0  0  0  0  0  0
    2.1367   -2.0069    3.2408 H   0  0  0  0  0  0  0  0  0  0  0  0
    2.5677    0.9627    1.2700 H   0  0  0  0  0  0  0  0  0  0  0  0
    4.6959    2.2081    1.0562 H   0  0  0  0  0  0  0  0  0  0  0  0
    7.3245    1.5938    3.3512 H   0  0  0  0  0  0  0  0  0  0  0  0
    6.2263   -0.5322    5.2898 H   0  0  0  0  0  0  0  0  0  0  0  0
    4.1384   -1.1383    4.6975 H   0  0  0  0  0  0  0  0  0  0  0  0
    0.7974   -1.3758    6.0435 H   0  0  0  0  0  0  0  0  0  0  0  0
   -7.5000   -4.5000    0.0000 B   0  0  0  0  0  0  0  0  0  0  0  0
   -4.5000   -4.5000    0.0000 B   0  0  0  0  0  0  0  0  0  0  0  0
   -1.5000   -4.5000    0.0000 B   0  0  0  0  0  0  0  0  0  0  0  0
    1.5000   -4.5000    0.0000 B   0  0  0  0  0  0  0  0  0  0  0  0
    4.5000   -4.5000    0.0000 B   0  0  0  0  0  0  0  0  0  0  0  0
    7.5000   -4.5000    0.0000 B   0  0  0  0  0  0  0  0  0  0  0  0
   -7.5000   -3.0000    0.0000 B   0  0  0  0  0  0  0  0  0  0  0  0
   -4.5000   -3.0000    0.0000 B   0  0  0  0  0  0  0  0  0  0  0  0
   -1.5000   -3.0000    0.0000 B   0  0  0  0  0  0  0  0  0  0  0  0
    1.5000   -3.0000    0.0000 B   0  0  0  0  0  0  0  0  0  0  0  0
    4.5000   -3.0000    0.0000 B   0  0  0  0  0  0  0  0  0  0  0  0
    7.5000   -3.0000    0.0000 B   0  0  0  0  0  0  0  0  0  0  0  0
   -7.5000   -1.5000    0.0000 B   0  0  0  0  0  0  0  0  0  0  0  0
   -4.5000   -1.5000    0.0000 B   0  0  0  0  0  0  0  0  0  0  0  0
   -1.5000   -1.5000    0.0000 B   0  0  0  0  0  0  0  0  0  0  0  0
    1.5000   -1.5000    0.0000 B   0  0  0  0  0  0  0  0  0  0  0  0
    4.5000   -1.5000    0.0000 B   0  0  0  0  0  0  0  0  0  0  0  0
    7.5000   -1.5000    0.0000 B   0  0  0  0  0  0  0  0  0  0  0  0
   -7.5000    0.0000    0.0000 B   0  0  0  0  0  0  0  0  0  0  0  0
   -4.5000    0.0000    0.0000 B   0  0  0  0  0  0  0  0  0  0  0  0
   -1.5000    0.0000    0.0000 B   0  0  0  0  0  0  0  0  0  0  0  0
    1.5000    0.0000    0.0000 B   0  0  0  0  0  0  0  0  0  0  0  0
    4.5000    0.0000    0.0000 B   0  0  0  0  0  0  0  0  0  0  0  0
    7.5000    0.0000    0.0000 B   0  0  0  0  0  0  0  0  0  0  0  0
   -7.5000    1.5000    0.0000 B   0  0  0  0  0  0  0  0  0  0  0  0
   -4.5000    1.5000    0.0000 B   0  0  0  0  0  0  0  0  0  0  0  0
   -1.5000    1.5000    0.0000 B   0  0  0  0  0  0  0  0  0  0  0  0
    1.5000    1.5000    0.0000 B   0  0  0  0  0  0  0  0  0  0  0  0
    4.5000    1.5000    0.0000 B   0  0  0  0  0  0  0  0  0  0  0  0
    7.5000    1.5000    0.0000 B   0  0  0  0  0  0  0  0  0  0  0  0
   -7.5000    3.0000    0.0000 B   0  0  0  0  0  0  0  0  0  0  0  0
   -4.5000    3.0000    0.0000 B   0  0  0  0  0  0  0  0  0  0  0  0
   -1.5000    3.0000    0.0000 B   0  0  0  0  0  0  0  0  0  0  0  0
    1.5000    3.0000    0.0000 B   0  0  0  0  0  0  0  0  0  0  0  0
    4.5000    3.0000    0.0000 B   0  0  0  0  0  0  0  0  0  0  0  0
    7.5000    3.0000    0.0000 B   0  0  0  0  0  0  0  0  0  0  0  0
   -7.5000    4.5000    0.0000 B   0  0  0  0  0  0  0  0  0  0  0  0
   -4.5000    4.5000    0.0000 B   0  0  0  0  0  0  0  0  0  0  0  0
   -1.5000    4.5000    0.0000 B   0  0  0  0  0  0  0  0  0  0  0  0
    1.5000    4.5000    0.0000 B   0  0  0  0  0  0  0  0  0  0  0  0
    4.5000    4.5000    0.0000 B   0  0  0  0  0  0  0  0  0  0  0  0
    7.5000    4.5000    0.0000 B   0  0  0  0  0  0  0  0  0  0  0  0
   -6.0000   -3.7500    0.0000 B   0  0  0  0  0  0  0  0  0  0  0  0
   -3.0000   -3.7500    0.0000 B   0  0  0  0  0  0  0  0  0  0  0  0
    0.0000   -3.7500    0.0000 B   0  0  0  0  0  0  0  0  0  0  0  0
    3.0000   -3.7500    0.0000 B   0  0  0  0  0  0  0  0  0  0  0  0
    6.0000   -3.7500    0.0000 B   0  0  0  0  0  0  0  0  0  0  0  0
   -6.0000    3.7500    0.0000 B   0  0  0  0  0  0  0  0  0  0  0  0
   -3.0000    3.7500    0.0000 B   0  0  0  0  0  0  0  0  0  0  0  0
    0.0000    3.7500    0.0000 B   0  0  0  0  0  0  0  0  0  0  0  0
    3.0000    3.7500    0.0000 B   0  0  0  0  0  0  0  0  0  0  0  0
    6.0000    3.7500    0.0000 B   0  0  0  0  0  0  0  0  0  0  0  0
   -6.0000    0.0000    0.0000 B   0  0  0  0  0  0  0  0  0  0  0  0
   -8.6000   -4.5000    0.0000 H   0  0  0  0  0  0  0  0  0  0  0  0
   -8.6000   -1.5000    0.0000 H   0  0  0  0  0  0  0  0  0  0  0  0
   -8.6000    1.5000    0.0000 H   0  0  0  0  0  0  0  0  0  0  0  0
   -8.6000    4.5000    0.0000 H   0  0  0  0  0  0  0  0  0  0  0  0
    8.6000   -4.5000    0.0000 H   0  0  0  0  0  0  0  0  0  0  0  0
    8.6000   -1.5000    0.0000 H   0  0  0  0  0  0  0  0  0  0  0  0
    8.6000    1.5000    0.0000 H   0  0  0  0  0  0  0  0  0  0  0  0
  1  2  2  0  0  0  0
  2  3  1  0  0  0  0
  2  4  1  0  0  0  0
  4  5  2  0  0  0  0
  5  6  1  0  0  0  0
  6  7  4  0  0  0  0
  7  8  4  0  0  0  0
  8  9  1  0  0  0  0
  9 10  1  0  0  0  0
  9 11  4  0  0  0  0
 11 12  1  0  0  0  0
  6 13  4  0  0  0  0
 11 13  4  0  0  0  0
 13 14  1  0  0  0  0
 14 15  1  0  0  0  0
 15 16  2  0  0  0  0
 15 17  1  0  0  0  0
 17 18  1  0  0  0  0
 18 19  1  0  0  0  0
 19 20  4  0  0  0  0
 20 21  4  0  0  0  0
 21 22  4  0  0  0  0
 22 23  1  0  0  0  0
 22 24  4  0  0  0  0
 24 25  1  0  0  0  0
 19 26  4  0  0  0  0
 24 26  4  0  0  0  0
 17 27  1  0  0  0  0
  3 28  1  0  0  0  0
  4 29  1  0  0  0  0
  5 30  1  0  0  0  0
  7 31  1  0  0  0  0
  8 32  1  0  0  0  0
 10 33  1  0  0  0  0
 12 34  1  0  0  0  0
 17 35  1  0  0  0  0
 18 36  1  0  0  0  0
 18 37  1  0  0  0  0
 20 38  1  0  0  0  0
 21 39  1  0  0  0  0
 23 40  1  0  0  0  0
 25 41  1  0  0  0  0
 26 42  1  0  0  0  0
 27 43  1  0  0  0  0
 44 50  1  0  0  0  0
 10 51  1  0  0  0  0
 45 51  1  0  0  0  0
 46 52  1  0  0  0  0
 47 53  1  0  0  0  0
 48 54  1  0  0  0  0
 49 55  1  0  0  0  0
 50 56  1  0  0  0  0
 51 57  1  0  0  0  0
 52 58  1  0  0  0  0
 53 59  1  0  0  0  0
 54 60  1  0  0  0  0
 55 61  1  0  0  0  0
 56 62  1  0  0  0  0
 57 63  1  0  0  0  0
 58 64  2  0  0  0  0
 59 65  2  0  0  0  0
 60 66  2  0  0  0  0
 61 67  1  0  0  0  0
 62 68  1  0  0  0  0
 63 69  1  0  0  0  0
 64 70  2  0  0  0  0
 65 71  2  0  0  0  0
 21 72  1  0  0  0  0
 66 72  2  0  0  0  0
 67 73  2  0  0  0  0
 68 74  1  0  0  0  0
 69 75  1  0  0  0  0
 70 76  1  0  0  0  0
 71 77  1  0  0  0  0
 72 78  1  0  0  0  0
 73 79  1  0  0  0  0
 74 80  1  0  0  0  0
 75 81  1  0  0  0  0
 76 82  1  0  0  0  0
 77 83  1  0  0  0  0
 78 84  1  0  0  0  0
 79 85  2  0  0  0  0
 44 86  1  0  0  0  0
 45 86  1  0  0  0  0
 50 86  1  0  0  0  0
 51 86  1  0  0  0  0
 10 87  1  0  0  0  0
 45 87  1  0  0  0  0
 46 87  1  0  0  0  0
 51 87  1  0  0  0  0
 52 87  1  0  0  0  0
 46 88  1  0  0  0  0
 47 88  1  0  0  0  0
 52 88  1  0  0  0  0
 53 88  1  0  0  0  0
 47 89  1  0  0  0  0
 48 89  1  0  0  0  0
 53 89  1  0  0  0  0
 54 89  1  0  0  0  0
 48 90  1  0  0  0  0
 49 90  1  0  0  0  0
 54 90  1  0  0  0  0
 55 90  1  0  0  0  0
 74 91  1  0  0  0  0
 75 91  1  0  0  0  0
 80 91  1  0  0  0  0
 81 91  1  0  0  0  0
 75 92  1  0  0  0  0
 76 92  1  0  0  0  0
 81 92  1  0  0  0  0
 82 92  1  0  0  0  0
 76 93  1  0  0  0  0
 77 93  1  0  0  0  0
 82 93  1  0  0  0  0
 83 93  1  0  0  0  0
 77 94  1  0  0  0  0
 78 94  1  0  0  0  0
 83 94  1  0  0  0  0
 84 94  1  0  0  0  0
 78 95  1  0  0  0  0
 79 95  1  0  0  0  0
 84 95  1  0  0  0  0
 85 95  1  0  0  0  0
 56 96  1  0  0  0  0
 57 96  1  0  0  0  0
 62 96  1  0  0  0  0
 63 96  1  0  0  0  0
 68 96  1  0  0  0  0
 69 96  1  0  0  0  0
 44 97  1  0  0  0  0
 56 98  1  0  0  0  0
 68 99  1  0  0  0  0
 80100  1  0  0  0  0
 49101  1  0  0  0  0
 61102  1  0  0  0  0
 73103  1  0  0  0  0
M  END
