 xtb: 6.7.1pre (5071a88)
          09012620283D

 98134  0     0  0            999 V2000
   -2.7673    3.7883   10.9940 O   0  0  0  0  0  0  0  0  0  0  0  0
   -3.6043    2.9434   11.2444 C   0  0  0  0  0  0  0  0  0  0  0  0
   -4.4489    3.0532   12.2814 O   0  0  0  0  0  0  0  0  0  0  0  0
   -3.8626    1.6973   10.5133 C   0  0  0  0  0  0  0  0  0  0  0  0
   -3.1418    1.4104    9.4193 C   0  0  0  0  0  0  0  0  0  0  0  0
   -3.3127    0.1754    8.6416 C   0  0  0  0  0  0  0  0  0  0  0  0
   -4.5905   -0.2778    8.2695 C   0  0  0  0  0  0  0  0  0  0  0  0
   -4.7501   -1.4367    7.4967 C   0  0  0  0  0  0  0  0  0  0  0  0
   -3.6260   -2.1409    7.0808 C   0  0  0  0  0  0  0  0  0  0  0  0
   -3.7228   -3.2717    6.3181 O   0  0  0  0  0  0  0  0  0  0  0  0
   -2.3524   -1.7032    7.4282 C   0  0  0  0  0  0  0  0  0  0  0  0
   -1.2564   -2.4021    6.9986 O   0  0  0  0  0  0  0  0  0  0  0  0
   -2.1978   -0.5598    8.2108 C   0  0  0  0  0  0  0  0  0  0  0  0
   -0.9048   -0.1339    8.5224 O   0  0  0  0  0  0  0  0  0  0  0  0
   -0.3991   -0.8062    9.6240 C   0  0  0  0  0  0  0  0  0  0  0  0
   -1.0179   -1.5254   10.4048 O   0  0  0  0  0  0  0  0  0  0  0  0
    1.0772   -0.4581    9.8152 C   0  0  0  0  0  0  0  0  0  0  0  0
    1.9044   -0.9383    8.6165 C   0  0  0  0  0  0  0  0  0  0  0  0
    3.2085   -0.1807    8.4771 C   0  0  0  0  0  0  0  0  0  0  0  0
    3.3714    0.7685    7.4529 C   0  0  0  0  0  0  0  0  0  0  0  0
    4.5686    1.4765    7.3237 C   0  0  0  0  0  0  0  0  0  0  0  0
    5.5979    1.2364    8.2204 C   0  0  0  0  0  0  0  0  0  0  0  0
    6.7679    1.9297    8.0963 O   0  0  0  0  0  0  0  0  0  0  0  0
    5.4491    0.3025    9.2414 C   0  0  0  0  0  0  0  0  0  0  0  0
    6.5010    0.1192   10.0967 O   0  0  0  0  0  0  0  0  0  0  0  0
    4.2627   -0.4100    9.3762 C   0  0  0  0  0  0  0  0  0  0  0  0
    1.5805   -1.0798   11.0111 O   0  0  0  0  0  0  0  0  0  0  0  0
   -4.1956    3.9017   12.7012 H   0  0  0  0  0  0  0  0  0  0  0  0
   -4.6280    1.0410   10.9077 H   0  0  0  0  0  0  0  0  0  0  0  0
   -2.3607    2.0870    9.0757 H   0  0  0  0  0  0  0  0  0  0  0  0
   -5.4788    0.2758    8.5680 H   0  0  0  0  0  0  0  0  0  0  0  0
   -5.7510   -1.7602    7.2276 H   0  0  0  0  0  0  0  0  0  0  0  0
   -4.6658   -3.4655    6.1757 H   0  0  0  0  0  0  0  0  0  0  0  0
   -1.6282   -3.1539    6.4939 H   0  0  0  0  0  0  0  0  0  0  0  0
    1.1437    0.6259    9.9625 H   0  0  0  0  0  0  0  0  0  0  0  0
    1.3437   -0.8393    7.6794 H   0  0  0  0  0  0  0  0  0  0  0  0
    2.1367   -2.0069    8.7165 H   0  0  0  0  0  0  0  0  0  0  0  0
    2.5677    0.9627    6.7457 H   0  0  0  0  0  0  0  0  0  0  0  0
    4.6959    2.2081    6.5319 H   0  0  0  0  0  0  0  0  0  0  0  0
    7.3245    1.5938    8.8269 H   0  0  0  0  0  0  0  0  0  0  0  0
    6.2263   -0.5322   10.7655 H   0  0  0  0  0  0  0  0  0  0  0  0
    4.1384   -1.1383   10.1732 H   0  0  0  0  0  0  0  0  0  0  0  0
    0.7974   -1.3758   11.5192 H   0  0  0  0  0  0  0  0  0  0  0  0
   -4.7806   -2.6045    0.3173 B   0  0  0  0  0  0  0  0  0  0  0  0
   -4.5695   -1.3567   -0.6480 B   0  0  0  0  0  0  0  0  0  0  0  0
   -4.4639   -0.2474   -1.8829 B   0  0  0  0  0  0  0  0  0  0  0  0
   -3.3965   -2.6620   -0.5028 B   0  0  0  0  0  0  0  0  0  0  0  0
   -3.0380    0.1776   -1.4048 B   0  0  0  0  0  0  0  0  0  0  0  0
   -4.3909    0.3426   -0.1924 B   0  0  0  0  0  0  0  0  0  0  0  0
   -5.0310    1.4031    0.8192 B   0  0  0  0  0  0  0  0  0  0  0  0
   -4.6201    2.9864    0.9976 B   0  0  0  0  0  0  0  0  0  0  0  0
   -2.8089    0.5128    0.1995 B   0  0  0  0  0  0  0  0  0  0  0  0
   -3.2186    3.2275    1.7932 B   0  0  0  0  0  0  0  0  0  0  0  0
   -2.1611   -3.7758   -0.5843 B   0  0  0  0  0  0  0  0  0  0  0  0
   -1.8769   -2.2481   -0.9334 B   0  0  0  0  0  0  0  0  0  0  0  0
   -1.6972   -0.6133   -0.8358 B   0  0  0  0  0  0  0  0  0  0  0  0
   -0.5844   -3.2190   -0.8350 B   0  0  0  0  0  0  0  0  0  0  0  0
   -0.2198   -0.1484   -0.3118 B   0  0  0  0  0  0  0  0  0  0  0  0
   -1.3950    0.0358    0.8521 B   0  0  0  0  0  0  0  0  0  0  0  0
   -1.7757    1.6621    0.7592 B   0  0  0  0  0  0  0  0  0  0  0  0
   -1.8975    3.2370    0.8826 B   0  0  0  0  0  0  0  0  0  0  0  0
   -0.2153    1.0372    1.0697 B   0  0  0  0  0  0  0  0  0  0  0  0
   -0.7521    4.3480    0.5584 B   0  0  0  0  0  0  0  0  0  0  0  0
    0.8265   -4.1129   -0.7400 B   0  0  0  0  0  0  0  0  0  0  0  0
    0.9251   -2.5054   -0.7497 B   0  0  0  0  0  0  0  0  0  0  0  0
    1.2144   -0.9490   -0.5870 B   0  0  0  0  0  0  0  0  0  0  0  0
    2.2007   -3.4026   -0.1682 B   0  0  0  0  0  0  0  0  0  0  0  0
    2.6220   -0.1957   -0.2930 B   0  0  0  0  0  0  0  0  0  0  0  0
    1.2341    0.5516    0.1426 B   0  0  0  0  0  0  0  0  0  0  0  0
    1.1248    2.0009    1.0430 B   0  0  0  0  0  0  0  0  0  0  0  0
    0.5366    3.4372    0.6180 B   0  0  0  0  0  0  0  0  0  0  0  0
    2.4580    1.6726    0.0875 B   0  0  0  0  0  0  0  0  0  0  0  0
    1.2136    3.0171   -0.8530 B   0  0  0  0  0  0  0  0  0  0  0  0
    3.2202   -3.8508    1.1044 B   0  0  0  0  0  0  0  0  0  0  0  0
    3.6240   -2.6535    0.0637 B   0  0  0  0  0  0  0  0  0  0  0  0
    4.0250   -1.1219   -0.2366 B   0  0  0  0  0  0  0  0  0  0  0  0
    4.4174   -2.8355    1.4203 B   0  0  0  0  0  0  0  0  0  0  0  0
    5.3636   -0.2419   -0.6898 B   0  0  0  0  0  0  0  0  0  0  0  0
    4.1041    0.5310   -0.0135 B   0  0  0  0  0  0  0  0  0  0  0  0
    4.0181    2.3218   -0.0338 B   0  0  0  0  0  0  0  0  0  0  0  0
    2.8218    3.0968   -0.9129 B   0  0  0  0  0  0  0  0  0  0  0  0
    5.4220    1.4583   -0.1853 B   0  0  0  0  0  0  0  0  0  0  0  0
    4.2961    3.5501   -1.0140 B   0  0  0  0  0  0  0  0  0  0  0  0
   -5.1687   -3.0949    1.3107 H   0  0  0  0  0  0  0  0  0  0  0  0
   -5.7161   -2.0764   -0.3935 H   0  0  0  0  0  0  0  0  0  0  0  0
   -5.2640   -0.1207   -2.7417 H   0  0  0  0  0  0  0  0  0  0  0  0
   -5.7711    1.0074    1.6646 H   0  0  0  0  0  0  0  0  0  0  0  0
   -5.3645    3.8431    0.6720 H   0  0  0  0  0  0  0  0  0  0  0  0
   -3.2343    3.2250    2.9757 H   0  0  0  0  0  0  0  0  0  0  0  0
   -2.3593   -4.9262   -0.4732 H   0  0  0  0  0  0  0  0  0  0  0  0
   -0.8965    5.4755    0.2443 H   0  0  0  0  0  0  0  0  0  0  0  0
    0.8223   -5.2498   -1.0233 H   0  0  0  0  0  0  0  0  0  0  0  0
    0.5537    2.6943   -1.7837 H   0  0  0  0  0  0  0  0  0  0  0  0
    2.9703   -4.8176    1.7172 H   0  0  0  0  0  0  0  0  0  0  0  0
    5.2631   -2.5125    2.1565 H   0  0  0  0  0  0  0  0  0  0  0  0
    6.3848   -0.6467   -1.0956 H   0  0  0  0  0  0  0  0  0  0  0  0
    6.5032    1.8382    0.0650 H   0  0  0  0  0  0  0  0  0  0  0  0
    5.1389    4.2524   -1.4154 H   0  0  0  0  0  0  0  0  0  0  0  0
  1  2  2  0  0  0  0
  2  3  1  0  0  0  0
  2  4  1  0  0  0  0
  4  5  2  0  0  0  0
  5  6  1  0  0  0  0
  6  7  4  0  0  0  0
  7  8  4  0  0  0  0
  8  9  4  0  0  0  0
  9 10  1  0  0  0  0
  9 11  4  0  0  0  0
 11 12  1  0  0  0  0
  6 13  4  0  0  0  0
 11 13  4  0  0  0  0
 13 14  1  0  0  0  0
 14 15  1  0  0  0  0
 15 16  2  0  0  0  0
 15 17  1  0  0  0  0
 17 18  1  0  0  0  0
 18 19  1  0  0  0  0
 19 20  4  0  0  0  0
 20 21  4  0  0  0  0
 21 22  4  0  0  0  0
 22 23  1  0  0  0  0
 22 24  4  0  0  0  0
 24 25  1  0  0  0  0
 19 26  4  0  0  0  0
 24 26  4  0  0  0  0
 17 27  1  0  0  0  0
  3 28  1  0  0  0  0
  4 29  1  0  0  0  0
  5 30  1  0  0  0  0
  7 31  1  0  0  0  0
  8 32  1  0  0  0  0
 10 33  1  0  0  0  0
 12 34  1  0  0  0  0
 17 35  1  0  0  0  0
 18 36  1  0  0  0  0
 18 37  1  0  0  0  0
 20 38  1  0  0  0  0
 21 39  1  0  0  0  0
 23 40  1  0  0  0  0
 25 41  1  0  0  0  0
 26 42  1  0  0  0  0
 27 43  1  0  0  0  0
 44 45  1  0  0  0  0
 45 46  1  0  0  0  0
 44 47  1  0  0  0  0
 45 47  1  0  0  0  0
 46 48  1  0  0  0  0
 45 49  1  0  0  0  0
 46 49  1  0  0  0  0
 48 49  1  0  0  0  0
 49 50  1  0  0  0  0
 50 51  1  0  0  0  0
 48 52  1  0  0  0  0
 49 52  1  0  0  0  0
 51 53  1  0  0  0  0
 47 54  1  0  0  0  0
 47 55  1  0  0  0  0
 54 55  1  0  0  0  0
 48 56  1  0  0  0  0
 52 56  1  0  0  0  0
 55 56  1  0  0  0  0
 54 57  1  0  0  0  0
 55 57  1  0  0  0  0
 56 58  1  0  0  0  0
 52 59  1  0  0  0  0
 56 59  1  0  0  0  0
 58 59  1  0  0  0  0
 52 60  1  0  0  0  0
 59 60  1  0  0  0  0
 53 61  1  0  0  0  0
 60 61  1  0  0  0  0
 58 62  1  0  0  0  0
 59 62  1  0  0  0  0
 60 62  1  0  0  0  0
 61 63  1  0  0  0  0
 57 64  1  0  0  0  0
 57 65  1  0  0  0  0
 64 65  1  0  0  0  0
 58 66  1  0  0  0  0
 65 66  1  0  0  0  0
 64 67  1  0  0  0  0
 65 67  1  0  0  0  0
 66 68  1  0  0  0  0
 58 69  1  0  0  0  0
 62 69  1  0  0  0  0
 66 69  1  0  0  0  0
 68 69  1  0  0  0  0
 62 70  1  0  0  0  0
 69 70  1  0  0  0  0
 63 71  1  0  0  0  0
 70 71  1  0  0  0  0
 68 72  1  0  0  0  0
 69 72  1  0  0  0  0
 70 72  1  0  0  0  0
 71 73  1  0  0  0  0
 67 74  1  0  0  0  0
 67 75  1  0  0  0  0
 74 75  1  0  0  0  0
 68 76  1  0  0  0  0
 75 76  1  0  0  0  0
 74 77  1  0  0  0  0
 75 77  1  0  0  0  0
 76 78  1  0  0  0  0
 68 79  1  0  0  0  0
 76 79  1  0  0  0  0
 78 79  1  0  0  0  0
 72 80  1  0  0  0  0
 79 80  1  0  0  0  0
 72 81  1  0  0  0  0
 73 81  1  0  0  0  0
 80 81  1  0  0  0  0
 78 82  1  0  0  0  0
 79 82  1  0  0  0  0
 80 82  1  0  0  0  0
 80 83  1  0  0  0  0
 81 83  1  0  0  0  0
 44 84  1  0  0  0  0
 44 85  1  0  0  0  0
 45 85  1  0  0  0  0
 46 86  1  0  0  0  0
 50 87  1  0  0  0  0
 51 88  1  0  0  0  0
 53 89  1  0  0  0  0
 54 90  1  0  0  0  0
 63 91  1  0  0  0  0
 64 92  1  0  0  0  0
 73 93  1  0  0  0  0
 74 94  1  0  0  0  0
 77 95  1  0  0  0  0
 78 96  1  0  0  0  0
 82 97  1  0  0  0  0
 83 98  1  0  0  0  0
M  END
