 xtb: 6.7.1pre (5071a88)
          09012616343D

103144  0     0  0            999 V2000
   -2.7673    3.7883    9.7668 O   0  0  0  0  0  0  0  0  0  0  0  0
   -3.6043    2.9434   10.0172 C   0  0  0  0  0  0  0  0  0  0  0  0
   -4.4489    3.0532   11.0542 O   0  0  0  0  0  0  0  0  0  0  0  0
   -3.8626    1.6973    9.2861 C   0  0  0  0  0  0  0  0  0  0  0  0
   -3.1418    1.4104    8.1921 C   0  0  0  0  0  0  0  0  0  0  0  0
   -3.3127    0.1754    7.4144 C   0  0  0  0  0  0  0  0  0  0  0  0
   -4.5905   -0.2778    7.0423 C   0  0  0  0  0  0  0  0  0  0  0  0
   -4.7501   -1.4367    6.2695 C   0  0  0  0  0  0  0  0  0  0  0  0
   -3.6260   -2.1409    5.8536 C   0  0  0  0  0  0  0  0  0  0  0  0
   -3.7228   -3.2717    5.0908 O   0  0  0  0  0  0  0  0  0  0  0  0
   -2.3524   -1.7032    6.2010 C   0  0  0  0  0  0  0  0  0  0  0  0
   -1.2564   -2.4021    5.7713 O   0  0  0  0  0  0  0  0  0  0  0  0
   -2.1978   -0.5598    6.9836 C   0  0  0  0  0  0  0  0  0  0  0  0
   -0.9048   -0.1339    7.2952 O   0  0  0  0  0  0  0  0  0  0  0  0
   -0.3991   -0.8062    8.3968 C   0  0  0  0  0  0  0  0  0  0  0  0
   -1.0179   -1.5254    9.1776 O   0  0  0  0  0  0  0  0  0  0  0  0
    1.0772   -0.4581    8.5879 C   0  0  0  0  0  0  0  0  0  0  0  0
    1.9044   -0.9383    7.3893 C   0  0  0  0  0  0  0  0  0  0  0  0
    3.2085   -0.1807    7.2499 C   0  0  0  0  0  0  0  0  0  0  0  0
    3.3714    0.7685    6.2257 C   0  0  0  0  0  0  0  0  0  0  0  0
    4.5686    1.4765    6.0964 C   0  0  0  0  0  0  0  0  0  0  0  0
    5.5979    1.2364    6.9932 C   0  0  0  0  0  0  0  0  0  0  0  0
    6.7679    1.9297    6.8691 O   0  0  0  0  0  0  0  0  0  0  0  0
    5.4491    0.3025    8.0142 C   0  0  0  0  0  0  0  0  0  0  0  0
    6.5010    0.1192    8.8695 O   0  0  0  0  0  0  0  0  0  0  0  0
    4.2627   -0.4100    8.1490 C   0  0  0  0  0  0  0  0  0  0  0  0
    1.5805   -1.0798    9.7839 O   0  0  0  0  0  0  0  0  0  0  0  0
   -4.1956    3.9017   11.4740 H   0  0  0  0  0  0  0  0  0  0  0  0
   -4.6280    1.0410    9.6805 H   0  0  0  0  0  0  0  0  0  0  0  0
   -2.3607    2.0870    7.8485 H   0  0  0  0  0  0  0  0  0  0  0  0
   -5.4788    0.2758    7.3408 H   0  0  0  0  0  0  0  0  0  0  0  0
   -5.7510   -1.7602    6.0004 H   0  0  0  0  0  0  0  0  0  0  0  0
   -4.6658   -3.4655    4.9485 H   0  0  0  0  0  0  0  0  0  0  0  0
   -1.6282   -3.1539    5.2667 H   0  0  0  0  0  0  0  0  0  0  0  0
    1.1437    0.6259    8.7353 H   0  0  0  0  0  0  0  0  0  0  0  0
    1.3437   -0.8393    6.4522 H   0  0  0  0  0  0  0  0  0  0  0  0
    2.1367   -2.0069    7.4893 H   0  0  0  0  0  0  0  0  0  0  0  0
    2.5677    0.9627    5.5185 H   0  0  0  0  0  0  0  0  0  0  0  0
    4.6959    2.2081    5.3047 H   0  0  0  0  0  0  0  0  0  0  0  0
    7.3245    1.5938    7.5997 H   0  0  0  0  0  0  0  0  0  0  0  0
    6.2263   -0.5322    9.5383 H   0  0  0  0  0  0  0  0  0  0  0  0
    4.1384   -1.1383    8.9460 H   0  0  0  0  0  0  0  0  0  0  0  0
    0.7974   -1.3758   10.2920 H   0  0  0  0  0  0  0  0  0  0  0  0
   -6.9256   -4.6511    0.2587 B   0  0  0  0  0  0  0  0  0  0  0  0
   -5.1098   -2.2493    0.3222 B   0  0  0  0  0  0  0  0  0  0  0  0
   -3.5915   -2.1814    0.2128 B   0  0  0  0  0  0  0  0  0  0  0  0
    0.9993   -2.8754    0.0638 B   0  0  0  0  0  0  0  0  0  0  0  0
    2.4759   -3.0122   -0.2709 B   0  0  0  0  0  0  0  0  0  0  0  0
    5.2994   -3.8314   -0.6672 B   0  0  0  0  0  0  0  0  0  0  0  0
    6.3183   -4.8359   -1.1558 B   0  0  0  0  0  0  0  0  0  0  0  0
   -6.4348   -3.1583    0.2864 B   0  0  0  0  0  0  0  0  0  0  0  0
   -6.7520   -1.6338    0.3164 B   0  0  0  0  0  0  0  0  0  0  0  0
   -2.0526   -2.3173    0.3349 B   0  0  0  0  0  0  0  0  0  0  0  0
   -0.4841   -2.4619    0.2574 B   0  0  0  0  0  0  0  0  0  0  0  0
    4.0184   -2.9011   -0.2872 B   0  0  0  0  0  0  0  0  0  0  0  0
    5.7532   -2.2815   -0.3028 B   0  0  0  0  0  0  0  0  0  0  0  0
    6.8301   -3.2288   -1.0929 B   0  0  0  0  0  0  0  0  0  0  0  0
   -7.6564   -0.2550    0.3431 B   0  0  0  0  0  0  0  0  0  0  0  0
   -6.0374   -0.1395    0.1913 B   0  0  0  0  0  0  0  0  0  0  0  0
   -4.4316   -0.5357    0.2239 B   0  0  0  0  0  0  0  0  0  0  0  0
   -2.7379   -0.6604    0.3290 B   0  0  0  0  0  0  0  0  0  0  0  0
   -1.0518   -0.9157    0.6419 B   0  0  0  0  0  0  0  0  0  0  0  0
    0.5171   -1.1722    0.7257 B   0  0  0  0  0  0  0  0  0  0  0  0
    3.1231   -1.4831   -0.0635 B   0  0  0  0  0  0  0  0  0  0  0  0
    4.7001   -1.1340    0.3402 B   0  0  0  0  0  0  0  0  0  0  0  0
    6.2667   -0.7872    0.2517 B   0  0  0  0  0  0  0  0  0  0  0  0
    7.6720   -0.3517    1.0327 B   0  0  0  0  0  0  0  0  0  0  0  0
   -6.9181    1.2121    0.1915 B   0  0  0  0  0  0  0  0  0  0  0  0
   -3.4184    0.7801    0.0809 B   0  0  0  0  0  0  0  0  0  0  0  0
   -1.6542    0.5326    0.1239 B   0  0  0  0  0  0  0  0  0  0  0  0
    1.8622   -0.4037    0.3246 B   0  0  0  0  0  0  0  0  0  0  0  0
    3.5847   -0.1504    0.7852 B   0  0  0  0  0  0  0  0  0  0  0  0
    6.9910    0.6111   -0.1068 B   0  0  0  0  0  0  0  0  0  0  0  0
    8.3074    1.0629    0.6316 B   0  0  0  0  0  0  0  0  0  0  0  0
   -7.6194    2.8040    0.2986 B   0  0  0  0  0  0  0  0  0  0  0  0
   -6.1238    2.5185   -0.1765 B   0  0  0  0  0  0  0  0  0  0  0  0
   -3.5886    2.3277   -0.2368 B   0  0  0  0  0  0  0  0  0  0  0  0
   -0.9061    1.8195   -0.4198 B   0  0  0  0  0  0  0  0  0  0  0  0
    1.6234    1.0199   -0.4108 B   0  0  0  0  0  0  0  0  0  0  0  0
    3.0108    1.3090    0.5297 B   0  0  0  0  0  0  0  0  0  0  0  0
    6.3729    1.8582   -0.9160 B   0  0  0  0  0  0  0  0  0  0  0  0
   -6.5277    4.0456   -0.1608 B   0  0  0  0  0  0  0  0  0  0  0  0
   -4.8736    3.4948   -0.3884 B   0  0  0  0  0  0  0  0  0  0  0  0
   -3.4155    3.8801   -0.6064 B   0  0  0  0  0  0  0  0  0  0  0  0
   -2.0235    3.2206   -0.6767 B   0  0  0  0  0  0  0  0  0  0  0  0
   -0.4974    3.2796   -0.8970 B   0  0  0  0  0  0  0  0  0  0  0  0
    0.7107    2.3324   -0.7457 B   0  0  0  0  0  0  0  0  0  0  0  0
    2.3353    2.4781   -0.4754 B   0  0  0  0  0  0  0  0  0  0  0  0
    3.8161    2.6195   -0.0941 B   0  0  0  0  0  0  0  0  0  0  0  0
    5.3698    2.8646   -0.1489 B   0  0  0  0  0  0  0  0  0  0  0  0
    6.0551    4.0800    0.6312 B   0  0  0  0  0  0  0  0  0  0  0  0
    6.2041    5.1477    0.1463 H   0  0  0  0  0  0  0  0  0  0  0  0
    8.2184   -1.1210    1.7268 H   0  0  0  0  0  0  0  0  0  0  0  0
    6.6224    1.9818   -2.0674 H   0  0  0  0  0  0  0  0  0  0  0  0
   -7.0900   -5.2506   -0.7538 H   0  0  0  0  0  0  0  0  0  0  0  0
   -6.7912    5.1815   -0.2852 H   0  0  0  0  0  0  0  0  0  0  0  0
    9.1569    1.8466    0.7900 H   0  0  0  0  0  0  0  0  0  0  0  0
   -8.8277   -0.3758    0.3286 H   0  0  0  0  0  0  0  0  0  0  0  0
    6.7839   -5.8690   -1.4465 H   0  0  0  0  0  0  0  0  0  0  0  0
   -8.7247    3.0012    0.6388 H   0  0  0  0  0  0  0  0  0  0  0  0
    7.8918   -2.8835   -1.4737 H   0  0  0  0  0  0  0  0  0  0  0  0
    6.4282    3.9996    1.7485 H   0  0  0  0  0  0  0  0  0  0  0  0
   -7.2249   -5.2823    1.2187 H   0  0  0  0  0  0  0  0  0  0  0  0
  1  2  2  0  0  0  0
  2  3  1  0  0  0  0
  2  4  1  0  0  0  0
  4  5  2  0  0  0  0
  5  6  1  0  0  0  0
  6  7  4  0  0  0  0
  7  8  4  0  0  0  0
  8  9  4  0  0  0  0
  9 10  1  0  0  0  0
  9 11  4  0  0  0  0
 11 12  1  0  0  0  0
  6 13  4  0  0  0  0
 11 13  4  0  0  0  0
 13 14  1  0  0  0  0
 14 15  1  0  0  0  0
 15 16  2  0  0  0  0
 15 17  1  0  0  0  0
 17 18  1  0  0  0  0
 18 19  1  0  0  0  0
 19 20  4  0  0  0  0
 20 21  4  0  0  0  0
 21 22  4  0  0  0  0
 22 23  1  0  0  0  0
 22 24  4  0  0  0  0
 24 25  1  0  0  0  0
 19 26  4  0  0  0  0
 24 26  4  0  0  0  0
 17 27  1  0  0  0  0
  3 28  1  0  0  0  0
  4 29  1  0  0  0  0
  5 30  1  0  0  0  0
  7 31  1  0  0  0  0
  8 32  1  0  0  0  0
 10 33  1  0  0  0  0
 12 34  1  0  0  0  0
 17 35  1  0  0  0  0
 18 36  1  0  0  0  0
 18 37  1  0  0  0  0
 20 38  1  0  0  0  0
 21 39  1  0  0  0  0
 23 40  1  0  0  0  0
 25 41  1  0  0  0  0
 26 42  1  0  0  0  0
 27 43  1  0  0  0  0
 45 46  1  0  0  0  0
 47 48  2  0  0  0  0
 49 50  2  0  0  0  0
 44 51  1  0  0  0  0
 45 51  1  0  0  0  0
 45 52  1  0  0  0  0
 51 52  1  0  0  0  0
 46 53  1  0  0  0  0
 47 54  1  0  0  0  0
 53 54  1  0  0  0  0
 48 55  1  0  0  0  0
 49 55  1  0  0  0  0
 49 56  1  0  0  0  0
 55 56  1  0  0  0  0
 49 57  1  0  0  0  0
 50 57  1  0  0  0  0
 56 57  1  0  0  0  0
 52 58  1  0  0  0  0
 52 59  1  0  0  0  0
 58 59  1  0  0  0  0
 45 60  1  0  0  0  0
 46 60  1  0  0  0  0
 59 60  1  0  0  0  0
 46 61  1  0  0  0  0
 53 61  1  0  0  0  0
 60 61  1  0  0  0  0
 53 62  1  0  0  0  0
 54 62  1  0  0  0  0
 61 62  1  0  0  0  0
 47 63  1  0  0  0  0
 54 63  1  0  0  0  0
 62 63  1  0  0  0  0
 48 64  1  0  0  0  0
 55 64  1  0  0  0  0
 55 65  1  0  0  0  0
 56 65  1  0  0  0  0
 64 65  1  0  0  0  0
 56 66  1  0  0  0  0
 65 66  1  0  0  0  0
 66 67  1  0  0  0  0
 58 68  1  0  0  0  0
 59 68  1  0  0  0  0
 60 69  1  0  0  0  0
 61 69  1  0  0  0  0
 61 70  1  0  0  0  0
 62 70  1  0  0  0  0
 69 70  1  0  0  0  0
 63 71  1  0  0  0  0
 64 71  1  0  0  0  0
 64 72  1  0  0  0  0
 65 72  1  0  0  0  0
 71 72  1  0  0  0  0
 66 73  1  0  0  0  0
 67 73  1  0  0  0  0
 67 74  1  0  0  0  0
 73 74  1  0  0  0  0
 68 75  1  0  0  0  0
 68 76  1  0  0  0  0
 75 76  1  0  0  0  0
 69 77  1  0  0  0  0
 70 78  1  0  0  0  0
 71 79  1  0  0  0  0
 72 80  1  0  0  0  0
 79 80  1  0  0  0  0
 73 81  1  0  0  0  0
 75 82  1  0  0  0  0
 76 82  1  0  0  0  0
 76 83  1  0  0  0  0
 77 83  1  0  0  0  0
 82 83  1  0  0  0  0
 77 84  1  0  0  0  0
 83 84  1  0  0  0  0
 77 85  1  0  0  0  0
 78 85  1  0  0  0  0
 84 85  1  0  0  0  0
 78 86  1  0  0  0  0
 85 86  1  0  0  0  0
 78 87  1  0  0  0  0
 79 87  1  0  0  0  0
 86 87  1  0  0  0  0
 79 88  1  0  0  0  0
 80 88  1  0  0  0  0
 87 88  1  0  0  0  0
 80 89  1  0  0  0  0
 88 89  1  0  0  0  0
 81 90  1  0  0  0  0
 89 90  1  0  0  0  0
 90 91  1  0  0  0  0
 91 92  1  0  0  0  0
 67 93  1  0  0  0  0
 81 94  1  0  0  0  0
 44 95  1  0  0  0  0
 82 96  1  0  0  0  0
 74 97  1  0  0  0  0
 58 98  1  0  0  0  0
 50 99  1  0  0  0  0
 75100  1  0  0  0  0
 57101  1  0  0  0  0
 91102  1  0  0  0  0
 44103  1  0  0  0  0
M  END
