 xtb: 6.7.1 (edcfbbe)
          09242615403D

 43 46  0     0  0            999 V2000
   -6.0346   -1.1078    4.2430 N   0  0  0  0  0  0  0  0  0  0  0  0
   -5.7783   -0.8397    3.1574 C   0  0  0  0  0  0  0  0  0  0  0  0
   -5.4612   -0.5133    1.8201 C   0  0  0  0  0  0  0  0  0  0  0  0
   -6.4967   -0.4221    0.8776 C   0  0  0  0  0  0  0  0  0  0  0  0
   -6.2133   -0.1004   -0.4321 C   0  0  0  0  0  0  0  0  0  0  0  0
   -4.8903    0.1230   -0.7750 C   0  0  0  0  0  0  0  0  0  0  0  0
   -4.3599    0.4598   -1.9950 N   0  0  0  0  0  0  0  0  0  0  0  0
   -3.0147    0.5890   -1.8709 C   0  0  0  0  0  0  0  0  0  0  0  0
   -2.2659    0.9164   -2.9098 O   0  0  0  0  0  0  0  0  0  0  0  0
   -2.6178    0.3342   -0.5633 C   0  0  0  0  0  0  0  0  0  0  0  0
   -1.2279    0.4079   -0.1793 C   0  0  0  0  0  0  0  0  0  0  0  0
   -0.7332    0.1305    1.0996 C   0  0  0  0  0  0  0  0  0  0  0  0
    0.6206    0.2464    1.3388 C   0  0  0  0  0  0  0  0  0  0  0  0
    1.4789    0.6407    0.3159 C   0  0  0  0  0  0  0  0  0  0  0  0
    2.9559    0.8150    0.5344 C   0  0  0  0  0  0  0  0  0  0  0  0
    3.7006    0.3847   -0.6356 N   0  0  0  0  0  0  0  0  0  0  0  0
    3.6753   -1.0533   -0.8579 C   0  0  0  0  0  0  0  0  0  0  0  0
    4.6485   -1.8115    0.0550 C   0  0  0  0  0  0  0  0  0  0  0  0
    5.9637   -1.3114   -0.0665 O   0  0  0  0  0  0  0  0  0  0  0  0
    6.0125    0.0696    0.2249 C   0  0  0  0  0  0  0  0  0  0  0  0
    5.0729    0.8579   -0.6966 C   0  0  0  0  0  0  0  0  0  0  0  0
    0.9039    0.8851   -0.9242 C   0  0  0  0  0  0  0  0  0  0  0  0
   -0.3866    0.7712   -1.1655 N   0  0  0  0  0  0  0  0  0  0  0  0
   -3.8231    0.0337    0.1605 C   0  0  0  0  0  0  0  0  0  0  0  0
   -4.1312   -0.2891    1.4761 C   0  0  0  0  0  0  0  0  0  0  0  0
   -7.5129   -0.6040    1.1919 H   0  0  0  0  0  0  0  0  0  0  0  0
   -6.9980   -0.0231   -1.1693 H   0  0  0  0  0  0  0  0  0  0  0  0
   -4.8701    0.5952   -2.8518 H   0  0  0  0  0  0  0  0  0  0  0  0
   -1.3295    0.9544   -2.5345 H   0  0  0  0  0  0  0  0  0  0  0  0
   -1.3959   -0.1763    1.8888 H   0  0  0  0  0  0  0  0  0  0  0  0
    1.0151    0.0332    2.3233 H   0  0  0  0  0  0  0  0  0  0  0  0
    3.2449    0.2966    1.4638 H   0  0  0  0  0  0  0  0  0  0  0  0
    3.1622    1.8821    0.6772 H   0  0  0  0  0  0  0  0  0  0  0  0
    2.6583   -1.4208   -0.7106 H   0  0  0  0  0  0  0  0  0  0  0  0
    3.9643   -1.2243   -1.8996 H   0  0  0  0  0  0  0  0  0  0  0  0
    4.6978   -2.8644   -0.2262 H   0  0  0  0  0  0  0  0  0  0  0  0
    4.3196   -1.7406    1.1041 H   0  0  0  0  0  0  0  0  0  0  0  0
    7.0492    0.3743    0.0742 H   0  0  0  0  0  0  0  0  0  0  0  0
    5.7402    0.2395    1.2790 H   0  0  0  0  0  0  0  0  0  0  0  0
    5.4103    0.7304   -1.7303 H   0  0  0  0  0  0  0  0  0  0  0  0
    5.1022    1.9200   -0.4469 H   0  0  0  0  0  0  0  0  0  0  0  0
    1.5209    1.1793   -1.7626 H   0  0  0  0  0  0  0  0  0  0  0  0
   -3.3769   -0.3681    2.2420 H   0  0  0  0  0  0  0  0  0  0  0  0
  1  2  3  0  0  0  0
  2  3  1  0  0  0  0
  3  4  4  0  0  0  0
  4  5  4  0  0  0  0
  5  6  4  0  0  0  0
  6  7  1  0  0  0  0
  7  8  4  0  0  0  0
  8  9  1  0  0  0  0
  8 10  4  0  0  0  0
 10 11  1  0  0  0  0
 11 12  4  0  0  0  0
 12 13  4  0  0  0  0
 13 14  4  0  0  0  0
 14 15  1  0  0  0  0
 15 16  1  0  0  0  0
 16 17  1  0  0  0  0
 17 18  1  0  0  0  0
 18 19  1  0  0  0  0
 19 20  1  0  0  0  0
 16 21  1  0  0  0  0
 20 21  1  0  0  0  0
 14 22  4  0  0  0  0
 11 23  4  0  0  0  0
 22 23  4  0  0  0  0
  6 24  4  0  0  0  0
 10 24  1  0  0  0  0
  3 25  4  0  0  0  0
 24 25  4  0  0  0  0
  4 26  1  0  0  0  0
  5 27  1  0  0  0  0
  7 28  1  0  0  0  0
  9 29  1  0  0  0  0
 12 30  1  0  0  0  0
 13 31  1  0  0  0  0
 15 32  1  0  0  0  0
 15 33  1  0  0  0  0
 17 34  1  0  0  0  0
 17 35  1  0  0  0  0
 18 36  1  0  0  0  0
 18 37  1  0  0  0  0
 20 38  1  0  0  0  0
 20 39  1  0  0  0  0
 21 40  1  0  0  0  0
 21 41  1  0  0  0  0
 22 42  1  0  0  0  0
 25 43  1  0  0  0  0
M  END
