 xtb: 6.7.1 (edcfbbe)
          09242615393D

 32 35  0     0  0            999 V2000
   -5.8402    2.8913    0.2879 Br  0  0  0  0  0  0  0  0  0  0  0  0
   -5.1367    1.1389   -0.0002 C   0  0  0  0  0  0  0  0  0  0  0  0
   -6.0113    0.0844   -0.1922 C   0  0  0  0  0  0  0  0  0  0  0  0
   -5.4871   -1.1823   -0.3955 C   0  0  0  0  0  0  0  0  0  0  0  0
   -4.1209   -1.3827   -0.4062 C   0  0  0  0  0  0  0  0  0  0  0  0
   -3.2450   -0.3135   -0.2136 C   0  0  0  0  0  0  0  0  0  0  0  0
   -1.8094   -0.5441   -0.2196 C   0  0  0  0  0  0  0  0  0  0  0  0
   -0.7603    0.3965   -0.1748 C   0  0  0  0  0  0  0  0  0  0  0  0
    0.4058   -0.3485   -0.1886 C   0  0  0  0  0  0  0  0  0  0  0  0
    1.7990    0.0558   -0.1418 C   0  0  0  0  0  0  0  0  0  0  0  0
    2.1630    1.3375   -0.5478 C   0  0  0  0  0  0  0  0  0  0  0  0
    3.4815    1.7767   -0.5122 C   0  0  0  0  0  0  0  0  0  0  0  0
    4.4260    0.8901   -0.0543 C   0  0  0  0  0  0  0  0  0  0  0  0
    4.0727   -0.3977    0.3561 C   0  0  0  0  0  0  0  0  0  0  0  0
    2.7766   -0.8404    0.3225 C   0  0  0  0  0  0  0  0  0  0  0  0
    5.1938   -1.0661    0.7678 O   0  0  0  0  0  0  0  0  0  0  0  0
    6.2634   -0.1573    0.6173 C   0  0  0  0  0  0  0  0  0  0  0  0
    5.7752    1.0576    0.0900 O   0  0  0  0  0  0  0  0  0  0  0  0
    0.0044   -1.6445   -0.2388 N   0  0  0  0  0  0  0  0  0  0  0  0
   -1.3112   -1.7778   -0.2668 N   0  0  0  0  0  0  0  0  0  0  0  0
   -3.7670    0.9617   -0.0080 C   0  0  0  0  0  0  0  0  0  0  0  0
   -7.0775    0.2495   -0.1815 H   0  0  0  0  0  0  0  0  0  0  0  0
   -6.1577   -2.0149   -0.5461 H   0  0  0  0  0  0  0  0  0  0  0  0
   -3.7037   -2.3646   -0.5613 H   0  0  0  0  0  0  0  0  0  0  0  0
   -0.8402    1.4618   -0.1264 H   0  0  0  0  0  0  0  0  0  0  0  0
    1.4007    2.0072   -0.9116 H   0  0  0  0  0  0  0  0  0  0  0  0
    3.7559    2.7684   -0.8293 H   0  0  0  0  0  0  0  0  0  0  0  0
    2.5311   -1.8304    0.6688 H   0  0  0  0  0  0  0  0  0  0  0  0
    6.7305    0.0277    1.5981 H   0  0  0  0  0  0  0  0  0  0  0  0
    7.0145   -0.5817   -0.0674 H   0  0  0  0  0  0  0  0  0  0  0  0
    0.5884   -2.4638   -0.2903 H   0  0  0  0  0  0  0  0  0  0  0  0
   -3.1145    1.8053    0.1520 H   0  0  0  0  0  0  0  0  0  0  0  0
  1  2  1  0  0  0  0
  2  3  4  0  0  0  0
  3  4  4  0  0  0  0
  4  5  4  0  0  0  0
  5  6  4  0  0  0  0
  6  7  1  0  0  0  0
  7  8  4  0  0  0  0
  8  9  4  0  0  0  0
  9 10  1  0  0  0  0
 10 11  4  0  0  0  0
 11 12  4  0  0  0  0
 12 13  4  0  0  0  0
 13 14  4  0  0  0  0
 10 15  4  0  0  0  0
 14 15  4  0  0  0  0
 14 16  1  0  0  0  0
 16 17  1  0  0  0  0
 13 18  1  0  0  0  0
 17 18  1  0  0  0  0
  9 19  4  0  0  0  0
  7 20  4  0  0  0  0
 19 20  4  0  0  0  0
  2 21  4  0  0  0  0
  6 21  4  0  0  0  0
  3 22  1  0  0  0  0
  4 23  1  0  0  0  0
  5 24  1  0  0  0  0
  8 25  1  0  0  0  0
 11 26  1  0  0  0  0
 12 27  1  0  0  0  0
 15 28  1  0  0  0  0
 17 29  1  0  0  0  0
 17 30  1  0  0  0  0
 19 31  1  0  0  0  0
 21 32  1  0  0  0  0
M  END
