 xtb: 6.7.1pre (5071a88)
          08312621153D

107161  0     0  0            999 V2000
    5.5009    1.6394    9.5126 C   0  0  0  0  0  0  0  0  0  0  0  0
    6.2748    1.5276    8.3273 O   0  0  0  0  0  0  0  0  0  0  0  0
    5.7915    0.7239    7.3282 C   0  0  0  0  0  0  0  0  0  0  0  0
    4.6012   -0.0096    7.3908 C   0  0  0  0  0  0  0  0  0  0  0  0
    4.1820   -0.8011    6.3080 C   0  0  0  0  0  0  0  0  0  0  0  0
    2.9364   -1.5709    6.4395 C   0  0  0  0  0  0  0  0  0  0  0  0
    2.0822   -1.7952    5.4302 C   0  0  0  0  0  0  0  0  0  0  0  0
    0.8304   -2.5684    5.6690 C   0  0  0  0  0  0  0  0  0  0  0  0
    0.5038   -2.9418    6.7940 O   0  0  0  0  0  0  0  0  0  0  0  0
   -0.0369   -2.8503    4.4758 C   0  0  0  0  0  0  0  0  0  0  0  0
   -0.8851   -1.6673    4.1068 C   0  0  0  0  0  0  0  0  0  0  0  0
   -0.5533   -0.9061    3.2000 O   0  0  0  0  0  0  0  0  0  0  0  0
   -2.1241   -1.4453    4.9051 C   0  0  0  0  0  0  0  0  0  0  0  0
   -2.9625   -0.4495    4.5822 C   0  0  0  0  0  0  0  0  0  0  0  0
   -4.1941   -0.1378    5.3219 C   0  0  0  0  0  0  0  0  0  0  0  0
   -5.0129   -1.1363    5.8642 C   0  0  0  0  0  0  0  0  0  0  0  0
   -6.1892   -0.8000    6.5365 C   0  0  0  0  0  0  0  0  0  0  0  0
   -6.5547    0.5393    6.6589 C   0  0  0  0  0  0  0  0  0  0  0  0
   -7.7085    0.8705    7.3184 O   0  0  0  0  0  0  0  0  0  0  0  0
   -5.7620    1.5572    6.1128 C   0  0  0  0  0  0  0  0  0  0  0  0
   -6.2183    2.8376    6.2858 O   0  0  0  0  0  0  0  0  0  0  0  0
   -5.4292    3.8933    5.7574 C   0  0  0  0  0  0  0  0  0  0  0  0
   -4.5857    1.2066    5.4404 C   0  0  0  0  0  0  0  0  0  0  0  0
    4.9869   -0.8721    5.1641 C   0  0  0  0  0  0  0  0  0  0  0  0
    6.1768   -0.1461    5.0892 C   0  0  0  0  0  0  0  0  0  0  0  0
    6.5700    0.6466    6.1660 C   0  0  0  0  0  0  0  0  0  0  0  0
    7.7372    1.3595    6.0936 O   0  0  0  0  0  0  0  0  0  0  0  0
    6.0251    2.3188   10.1917 H   0  0  0  0  0  0  0  0  0  0  0  0
    4.5173    2.0728    9.3034 H   0  0  0  0  0  0  0  0  0  0  0  0
    5.4086    0.6719   10.0169 H   0  0  0  0  0  0  0  0  0  0  0  0
    3.9748    0.0266    8.2767 H   0  0  0  0  0  0  0  0  0  0  0  0
    2.7140   -1.9448    7.4383 H   0  0  0  0  0  0  0  0  0  0  0  0
    2.2458   -1.4190    4.4267 H   0  0  0  0  0  0  0  0  0  0  0  0
   -0.6739   -3.7175    4.6840 H   0  0  0  0  0  0  0  0  0  0  0  0
    0.5850   -3.1352    3.6197 H   0  0  0  0  0  0  0  0  0  0  0  0
   -2.2916   -2.1044    5.7495 H   0  0  0  0  0  0  0  0  0  0  0  0
   -2.7363    0.2055    3.7415 H   0  0  0  0  0  0  0  0  0  0  0  0
   -4.7543   -2.1871    5.7612 H   0  0  0  0  0  0  0  0  0  0  0  0
   -6.8069   -1.5907    6.9506 H   0  0  0  0  0  0  0  0  0  0  0  0
   -8.1357    0.0621    7.6397 H   0  0  0  0  0  0  0  0  0  0  0  0
   -5.9324    4.8366    5.9909 H   0  0  0  0  0  0  0  0  0  0  0  0
   -5.3502    3.8202    4.6677 H   0  0  0  0  0  0  0  0  0  0  0  0
   -4.4397    3.9201    6.2257 H   0  0  0  0  0  0  0  0  0  0  0  0
   -3.9489    1.9700    5.0043 H   0  0  0  0  0  0  0  0  0  0  0  0
    4.7066   -1.5006    4.3226 H   0  0  0  0  0  0  0  0  0  0  0  0
    6.7834   -0.2149    4.1916 H   0  0  0  0  0  0  0  0  0  0  0  0
    8.1519    1.2059    5.2312 H   0  0  0  0  0  0  0  0  0  0  0  0
   -6.3511   -2.8545   -0.3396 B   0  0  0  0  0  0  0  0  0  0  0  0
   -3.8632   -3.4276    0.8712 B   0  0  0  0  0  0  0  0  0  0  0  0
   -1.0552   -4.1651    1.9793 B   0  0  0  0  0  0  0  0  0  0  0  0
    1.6853   -4.2318    1.3549 B   0  0  0  0  0  0  0  0  0  0  0  0
    2.9703   -3.6923    0.6219 B   0  0  0  0  0  0  0  0  0  0  0  0
    5.9076   -3.8486   -0.3800 B   0  0  0  0  0  0  0  0  0  0  0  0
   -4.7612   -2.3307   -0.4078 B   0  0  0  0  0  0  0  0  0  0  0  0
   -2.6199   -2.2111    0.8442 B   0  0  0  0  0  0  0  0  0  0  0  0
   -1.2327   -2.3911    1.7792 B   0  0  0  0  0  0  0  0  0  0  0  0
    0.2814   -3.1446    1.2586 B   0  0  0  0  0  0  0  0  0  0  0  0
    3.1280   -2.1353    0.0337 B   0  0  0  0  0  0  0  0  0  0  0  0
    5.2824   -2.5807   -1.1427 B   0  0  0  0  0  0  0  0  0  0  0  0
   -4.3827   -1.0545   -1.3461 B   0  0  0  0  0  0  0  0  0  0  0  0
   -3.1924   -1.2685   -0.2398 B   0  0  0  0  0  0  0  0  0  0  0  0
   -0.7667   -0.9151    2.1471 B   0  0  0  0  0  0  0  0  0  0  0  0
    0.4341   -1.5098    0.8825 B   0  0  0  0  0  0  0  0  0  0  0  0
    4.2603   -1.2719   -0.6057 B   0  0  0  0  0  0  0  0  0  0  0  0
    6.8452   -2.4756   -0.8065 B   0  0  0  0  0  0  0  0  0  0  0  0
   -5.0072   -0.6437   -2.8496 B   0  0  0  0  0  0  0  0  0  0  0  0
   -3.1952    0.1543   -0.9257 B   0  0  0  0  0  0  0  0  0  0  0  0
   -0.9469    0.6233    2.2104 B   0  0  0  0  0  0  0  0  0  0  0  0
    0.0016   -0.0204    0.9084 B   0  0  0  0  0  0  0  0  0  0  0  0
    4.8754    0.2242   -0.5476 B   0  0  0  0  0  0  0  0  0  0  0  0
    5.8786   -1.0664   -1.1306 B   0  0  0  0  0  0  0  0  0  0  0  0
   -5.7672    0.8535   -2.9176 B   0  0  0  0  0  0  0  0  0  0  0  0
   -2.8971    1.6282   -0.7083 B   0  0  0  0  0  0  0  0  0  0  0  0
   -1.2399    2.1332    2.0889 B   0  0  0  0  0  0  0  0  0  0  0  0
    0.1883    1.5499    1.0540 B   0  0  0  0  0  0  0  0  0  0  0  0
    4.2581    1.5841    0.0647 B   0  0  0  0  0  0  0  0  0  0  0  0
    6.3075    0.4397   -1.6258 B   0  0  0  0  0  0  0  0  0  0  0  0
   -5.7341    1.7554   -1.4938 B   0  0  0  0  0  0  0  0  0  0  0  0
   -3.3469    2.9740   -0.1746 B   0  0  0  0  0  0  0  0  0  0  0  0
   -1.6646    3.6160    1.7973 B   0  0  0  0  0  0  0  0  0  0  0  0
   -0.0590    3.1640    1.3235 B   0  0  0  0  0  0  0  0  0  0  0  0
    2.9656    2.2589    0.6844 B   0  0  0  0  0  0  0  0  0  0  0  0
    5.7919    1.6725   -0.6985 B   0  0  0  0  0  0  0  0  0  0  0  0
   -6.6389    2.8000   -0.8422 B   0  0  0  0  0  0  0  0  0  0  0  0
   -4.4746    3.8873    0.5879 B   0  0  0  0  0  0  0  0  0  0  0  0
   -1.7771    5.1752    1.2154 B   0  0  0  0  0  0  0  0  0  0  0  0
    1.1754    4.4066    1.3290 B   0  0  0  0  0  0  0  0  0  0  0  0
    2.5938    3.9229    0.8796 B   0  0  0  0  0  0  0  0  0  0  0  0
    5.3509    2.9860   -0.0541 B   0  0  0  0  0  0  0  0  0  0  0  0
   -5.3190   -3.6348    0.4165 B   0  0  0  0  0  0  0  0  0  0  0  0
   -2.4877   -3.6329    1.6055 B   0  0  0  0  0  0  0  0  0  0  0  0
    0.3596   -4.7213    1.9063 B   0  0  0  0  0  0  0  0  0  0  0  0
    1.7215   -2.4162    0.7345 B   0  0  0  0  0  0  0  0  0  0  0  0
    4.3387   -3.4800   -0.0729 B   0  0  0  0  0  0  0  0  0  0  0  0
   -5.0953    2.8472   -0.3735 B   0  0  0  0  0  0  0  0  0  0  0  0
   -3.0345    4.3187    0.9326 B   0  0  0  0  0  0  0  0  0  0  0  0
   -0.2869    4.8951    1.4426 B   0  0  0  0  0  0  0  0  0  0  0  0
    1.4616    2.5482    0.9924 B   0  0  0  0  0  0  0  0  0  0  0  0
    4.0784    3.6198    0.5106 B   0  0  0  0  0  0  0  0  0  0  0  0
   -4.5957    0.5913   -1.8415 B   0  0  0  0  0  0  0  0  0  0  0  0
   -7.3684   -2.5027   -0.8103 H   0  0  0  0  0  0  0  0  0  0  0  0
   -4.9591   -1.3760   -3.7739 H   0  0  0  0  0  0  0  0  0  0  0  0
   -6.3246    1.2608   -3.8715 H   0  0  0  0  0  0  0  0  0  0  0  0
   -7.6134    3.4017   -0.5976 H   0  0  0  0  0  0  0  0  0  0  0  0
    6.3612   -4.9354   -0.3602 H   0  0  0  0  0  0  0  0  0  0  0  0
    8.0163   -2.4682   -0.9061 H   0  0  0  0  0  0  0  0  0  0  0  0
    6.9392    0.6146   -2.6128 H   0  0  0  0  0  0  0  0  0  0  0  0
  1  2  1  0  0  0  0
  2  3  1  0  0  0  0
  3  4  4  0  0  0  0
  4  5  4  0  0  0  0
  5  6  1  0  0  0  0
  6  7  2  0  0  0  0
  7  8  1  0  0  0  0
  8  9  2  0  0  0  0
  8 10  1  0  0  0  0
 10 11  1  0  0  0  0
 11 12  1  0  0  0  0
 11 13  4  0  0  0  0
 13 14  2  0  0  0  0
 14 15  1  0  0  0  0
 15 16  4  0  0  0  0
 16 17  4  0  0  0  0
 17 18  4  0  0  0  0
 18 19  1  0  0  0  0
 18 20  4  0  0  0  0
 20 21  1  0  0  0  0
 21 22  1  0  0  0  0
 15 23  4  0  0  0  0
 20 23  4  0  0  0  0
  5 24  4  0  0  0  0
 24 25  4  0  0  0  0
  3 26  4  0  0  0  0
 25 26  4  0  0  0  0
 26 27  1  0  0  0  0
  1 28  1  0  0  0  0
  1 29  1  0  0  0  0
  1 30  1  0  0  0  0
  4 31  1  0  0  0  0
  6 32  1  0  0  0  0
  7 33  1  0  0  0  0
 10 34  1  0  0  0  0
 10 35  1  0  0  0  0
 13 36  1  0  0  0  0
 14 37  1  0  0  0  0
 16 38  1  0  0  0  0
 17 39  1  0  0  0  0
 19 40  1  0  0  0  0
 22 41  1  0  0  0  0
 22 42  1  0  0  0  0
 22 43  1  0  0  0  0
 23 44  1  0  0  0  0
 24 45  1  0  0  0  0
 25 46  1  0  0  0  0
 27 47  1  0  0  0  0
 51 52  1  0  0  0  0
 48 54  1  0  0  0  0
 49 54  1  0  0  0  0
 49 55  1  0  0  0  0
 50 56  1  0  0  0  0
 55 56  1  0  0  0  0
 50 57  1  0  0  0  0
 51 57  1  0  0  0  0
 56 57  1  0  0  0  0
 52 58  1  0  0  0  0
 53 59  1  0  0  0  0
 54 60  1  0  0  0  0
 54 61  1  0  0  0  0
 55 61  1  0  0  0  0
 60 61  1  0  0  0  0
 12 62  1  0  0  0  0
 56 62  1  0  0  0  0
 57 63  1  0  0  0  0
 58 64  1  0  0  0  0
 59 64  1  0  0  0  0
 53 65  1  0  0  0  0
 59 65  1  0  0  0  0
 60 66  1  0  0  0  0
 60 67  1  0  0  0  0
 61 67  1  0  0  0  0
 62 68  1  0  0  0  0
 62 69  1  0  0  0  0
 63 69  1  0  0  0  0
 68 69  1  0  0  0  0
 64 70  1  0  0  0  0
 59 71  1  0  0  0  0
 64 71  1  0  0  0  0
 65 71  1  0  0  0  0
 70 71  1  0  0  0  0
 66 72  1  0  0  0  0
 67 73  1  0  0  0  0
 68 74  1  0  0  0  0
 68 75  1  0  0  0  0
 69 75  1  0  0  0  0
 74 75  1  0  0  0  0
 70 76  1  0  0  0  0
 70 77  1  0  0  0  0
 71 77  1  0  0  0  0
 72 78  1  0  0  0  0
 73 79  2  0  0  0  0
 74 80  1  0  0  0  0
 74 81  1  0  0  0  0
 75 81  1  0  0  0  0
 80 81  1  0  0  0  0
 76 82  1  0  0  0  0
 70 83  1  0  0  0  0
 76 83  1  0  0  0  0
 77 83  1  0  0  0  0
 78 84  1  0  0  0  0
 79 85  1  0  0  0  0
 80 86  1  0  0  0  0
 81 87  1  0  0  0  0
 82 88  1  0  0  0  0
 87 88  1  0  0  0  0
 76 89  1  0  0  0  0
 83 89  1  0  0  0  0
 48 90  2  0  0  0  0
 49 90  1  0  0  0  0
 54 90  1  0  0  0  0
 49 91  1  0  0  0  0
 50 91  1  0  0  0  0
 55 91  1  0  0  0  0
 56 91  1  0  0  0  0
 50 92  1  0  0  0  0
 51 92  1  0  0  0  0
 57 92  1  0  0  0  0
 51 93  1  0  0  0  0
 52 93  1  0  0  0  0
 57 93  1  0  0  0  0
 58 93  1  0  0  0  0
 63 93  1  0  0  0  0
 52 94  1  0  0  0  0
 53 94  1  0  0  0  0
 58 94  1  0  0  0  0
 59 94  1  0  0  0  0
 78 95  1  0  0  0  0
 79 95  1  0  0  0  0
 84 95  1  0  0  0  0
 85 95  1  0  0  0  0
 79 96  1  0  0  0  0
 80 96  1  0  0  0  0
 85 96  1  0  0  0  0
 86 96  1  0  0  0  0
 80 97  1  0  0  0  0
 81 97  1  0  0  0  0
 86 97  1  0  0  0  0
 87 97  1  0  0  0  0
 75 98  1  0  0  0  0
 81 98  1  0  0  0  0
 82 98  1  0  0  0  0
 87 98  1  0  0  0  0
 88 98  1  0  0  0  0
 76 99  1  0  0  0  0
 82 99  1  0  0  0  0
 88 99  1  0  0  0  0
 89 99  1  0  0  0  0
 60100  1  0  0  0  0
 66100  1  0  0  0  0
 67100  1  0  0  0  0
 72100  1  0  0  0  0
 78100  1  0  0  0  0
 48101  1  0  0  0  0
 66102  1  0  0  0  0
 72103  1  0  0  0  0
 84104  1  0  0  0  0
 53105  1  0  0  0  0
 65106  1  0  0  0  0
 77107  1  0  0  0  0
M  END
