 xtb: 6.7.1pre (5071a88)
          08312622063D

107161  0     0  0            999 V2000
    1.3983   -5.5010   11.7217 C   0  0  0  0  0  0  0  0  0  0  0  0
    1.3415   -6.2283   10.5209 O   0  0  0  0  0  0  0  0  0  0  0  0
    0.7013   -5.6661    9.4530 C   0  0  0  0  0  0  0  0  0  0  0  0
    0.0706   -4.4369    9.4415 C   0  0  0  0  0  0  0  0  0  0  0  0
   -0.5479   -3.9358    8.2807 C   0  0  0  0  0  0  0  0  0  0  0  0
   -1.1970   -2.6515    8.3193 C   0  0  0  0  0  0  0  0  0  0  0  0
   -1.6076   -1.9302    7.2512 C   0  0  0  0  0  0  0  0  0  0  0  0
   -2.3573   -0.6947    7.3866 C   0  0  0  0  0  0  0  0  0  0  0  0
   -2.6964   -0.2157    8.4651 O   0  0  0  0  0  0  0  0  0  0  0  0
   -2.6805   -0.0081    6.0718 C   0  0  0  0  0  0  0  0  0  0  0  0
   -1.4183    0.7931    5.7756 C   0  0  0  0  0  0  0  0  0  0  0  0
   -0.5906    0.3941    4.9376 O   0  0  0  0  0  0  0  0  0  0  0  0
   -1.2864    1.9880    6.5544 C   0  0  0  0  0  0  0  0  0  0  0  0
   -0.1745    2.7702    6.5467 C   0  0  0  0  0  0  0  0  0  0  0  0
    0.0348    3.9623    7.3137 C   0  0  0  0  0  0  0  0  0  0  0  0
   -0.9846    4.6119    8.0166 C   0  0  0  0  0  0  0  0  0  0  0  0
   -0.7279    5.7725    8.7215 C   0  0  0  0  0  0  0  0  0  0  0  0
    0.5460    6.3149    8.7665 C   0  0  0  0  0  0  0  0  0  0  0  0
    0.8325    7.4643    9.4481 O   0  0  0  0  0  0  0  0  0  0  0  0
    1.5976    5.6663    8.0889 C   0  0  0  0  0  0  0  0  0  0  0  0
    2.8251    6.2616    8.2123 O   0  0  0  0  0  0  0  0  0  0  0  0
    3.9330    5.5950    7.6639 C   0  0  0  0  0  0  0  0  0  0  0  0
    1.3282    4.5204    7.3690 C   0  0  0  0  0  0  0  0  0  0  0  0
   -0.5230   -4.7258    7.1298 C   0  0  0  0  0  0  0  0  0  0  0  0
    0.0889   -5.9648    7.1349 C   0  0  0  0  0  0  0  0  0  0  0  0
    0.7042   -6.4467    8.2784 C   0  0  0  0  0  0  0  0  0  0  0  0
    1.3146   -7.6652    8.3219 O   0  0  0  0  0  0  0  0  0  0  0  0
    1.9358   -6.1347   12.4273 H   0  0  0  0  0  0  0  0  0  0  0  0
    1.9448   -4.5617   11.5959 H   0  0  0  0  0  0  0  0  0  0  0  0
    0.3992   -5.2920   12.1193 H   0  0  0  0  0  0  0  0  0  0  0  0
    0.0447   -3.8283   10.3321 H   0  0  0  0  0  0  0  0  0  0  0  0
   -1.3681   -2.2194    9.3021 H   0  0  0  0  0  0  0  0  0  0  0  0
   -1.4073   -2.2606    6.2447 H   0  0  0  0  0  0  0  0  0  0  0  0
   -3.5376    0.6530    6.1974 H   0  0  0  0  0  0  0  0  0  0  0  0
   -2.8663   -0.7281    5.2766 H   0  0  0  0  0  0  0  0  0  0  0  0
   -2.1020    2.2046    7.2296 H   0  0  0  0  0  0  0  0  0  0  0  0
    0.6472    2.4455    5.9125 H   0  0  0  0  0  0  0  0  0  0  0  0
   -1.9861    4.2141    8.0074 H   0  0  0  0  0  0  0  0  0  0  0  0
   -1.5309    6.2690    9.2517 H   0  0  0  0  0  0  0  0  0  0  0  0
    0.0264    7.8016    9.8587 H   0  0  0  0  0  0  0  0  0  0  0  0
    4.7987    6.2146    7.8958 H   0  0  0  0  0  0  0  0  0  0  0  0
    3.8489    5.4910    6.5753 H   0  0  0  0  0  0  0  0  0  0  0  0
    4.0673    4.6058    8.1160 H   0  0  0  0  0  0  0  0  0  0  0  0
    2.1168    4.0103    6.8388 H   0  0  0  0  0  0  0  0  0  0  0  0
   -1.0072   -4.3831    6.2303 H   0  0  0  0  0  0  0  0  0  0  0  0
    0.0848   -6.5728    6.2396 H   0  0  0  0  0  0  0  0  0  0  0  0
    1.2240   -8.1020    7.4651 H   0  0  0  0  0  0  0  0  0  0  0  0
   -6.3857   -2.8545   -0.3513 B   0  0  0  0  0  0  0  0  0  0  0  0
   -3.9324   -3.5093    0.8800 B   0  0  0  0  0  0  0  0  0  0  0  0
   -1.1670   -4.2465    2.1210 B   0  0  0  0  0  0  0  0  0  0  0  0
    1.6019   -4.2413    1.6262 B   0  0  0  0  0  0  0  0  0  0  0  0
    2.8782   -3.6472    0.9183 B   0  0  0  0  0  0  0  0  0  0  0  0
    5.7662   -3.8088   -0.2377 B   0  0  0  0  0  0  0  0  0  0  0  0
   -4.7849   -2.3626   -0.3743 B   0  0  0  0  0  0  0  0  0  0  0  0
   -2.6887   -2.2961    0.9332 B   0  0  0  0  0  0  0  0  0  0  0  0
   -1.4022   -2.4801    2.0044 B   0  0  0  0  0  0  0  0  0  0  0  0
    0.1902   -3.1637    1.5836 B   0  0  0  0  0  0  0  0  0  0  0  0
    3.0197   -2.0755    0.3664 B   0  0  0  0  0  0  0  0  0  0  0  0
    5.1079   -2.5225   -0.9394 B   0  0  0  0  0  0  0  0  0  0  0  0
   -4.3794   -1.0570   -1.2642 B   0  0  0  0  0  0  0  0  0  0  0  0
   -3.2159   -1.3100   -0.1359 B   0  0  0  0  0  0  0  0  0  0  0  0
   -1.0063   -0.9961    2.3908 B   0  0  0  0  0  0  0  0  0  0  0  0
    0.3264   -1.5236    1.2516 B   0  0  0  0  0  0  0  0  0  0  0  0
    4.1299   -1.2207   -0.3125 B   0  0  0  0  0  0  0  0  0  0  0  0
    6.6883   -2.4483   -0.7105 B   0  0  0  0  0  0  0  0  0  0  0  0
   -4.9355   -0.6212   -2.7860 B   0  0  0  0  0  0  0  0  0  0  0  0
   -3.2149    0.1477   -0.7546 B   0  0  0  0  0  0  0  0  0  0  0  0
   -1.1825    0.5612    2.5535 B   0  0  0  0  0  0  0  0  0  0  0  0
   -0.0903   -0.0437    1.3361 B   0  0  0  0  0  0  0  0  0  0  0  0
    4.7714    0.2867   -0.3241 B   0  0  0  0  0  0  0  0  0  0  0  0
    5.6986   -1.0133   -0.9630 B   0  0  0  0  0  0  0  0  0  0  0  0
   -5.6361    0.9105   -2.9026 B   0  0  0  0  0  0  0  0  0  0  0  0
   -2.8808    1.5866   -0.3975 B   0  0  0  0  0  0  0  0  0  0  0  0
   -1.4376    2.0808    2.4046 B   0  0  0  0  0  0  0  0  0  0  0  0
    0.0500    1.5161    1.5309 B   0  0  0  0  0  0  0  0  0  0  0  0
    4.1298    1.6609    0.3127 B   0  0  0  0  0  0  0  0  0  0  0  0
    6.1163    0.4893   -1.4738 B   0  0  0  0  0  0  0  0  0  0  0  0
   -5.6742    1.8128   -1.4786 B   0  0  0  0  0  0  0  0  0  0  0  0
   -3.3754    2.9304    0.1034 B   0  0  0  0  0  0  0  0  0  0  0  0
   -1.8435    3.5753    2.1081 B   0  0  0  0  0  0  0  0  0  0  0  0
   -0.1912    3.1375    1.7677 B   0  0  0  0  0  0  0  0  0  0  0  0
    2.8122    2.2278    0.9936 B   0  0  0  0  0  0  0  0  0  0  0  0
    5.6012    1.7522   -0.5899 B   0  0  0  0  0  0  0  0  0  0  0  0
   -6.5751    2.9363   -0.9629 B   0  0  0  0  0  0  0  0  0  0  0  0
   -4.5492    3.9136    0.6912 B   0  0  0  0  0  0  0  0  0  0  0  0
   -1.9060    5.1518    1.5785 B   0  0  0  0  0  0  0  0  0  0  0  0
    1.0441    4.3778    1.7304 B   0  0  0  0  0  0  0  0  0  0  0  0
    2.4444    3.8680    1.2738 B   0  0  0  0  0  0  0  0  0  0  0  0
    5.1738    3.0587    0.0691 B   0  0  0  0  0  0  0  0  0  0  0  0
   -5.3778   -3.6906    0.3790 B   0  0  0  0  0  0  0  0  0  0  0  0
   -2.5869   -3.7379    1.6635 B   0  0  0  0  0  0  0  0  0  0  0  0
    0.2615   -4.7793    2.0995 B   0  0  0  0  0  0  0  0  0  0  0  0
    1.6193   -2.4082    1.0696 B   0  0  0  0  0  0  0  0  0  0  0  0
    4.2245   -3.4134    0.1746 B   0  0  0  0  0  0  0  0  0  0  0  0
   -5.0929    2.8817   -0.3197 B   0  0  0  0  0  0  0  0  0  0  0  0
   -3.1456    4.3123    1.1951 B   0  0  0  0  0  0  0  0  0  0  0  0
   -0.4215    4.8591    1.8291 B   0  0  0  0  0  0  0  0  0  0  0  0
    1.3272    2.4977    1.4193 B   0  0  0  0  0  0  0  0  0  0  0  0
    3.9034    3.5474    0.7677 B   0  0  0  0  0  0  0  0  0  0  0  0
   -4.5843    0.5857   -1.7252 B   0  0  0  0  0  0  0  0  0  0  0  0
   -7.3874   -2.4604   -0.8151 H   0  0  0  0  0  0  0  0  0  0  0  0
   -4.8951   -1.3523   -3.7077 H   0  0  0  0  0  0  0  0  0  0  0  0
   -6.1208    1.3175   -3.8925 H   0  0  0  0  0  0  0  0  0  0  0  0
   -7.5210    3.6103   -0.8469 H   0  0  0  0  0  0  0  0  0  0  0  0
    6.1968   -4.9013   -0.2593 H   0  0  0  0  0  0  0  0  0  0  0  0
    7.8466   -2.4246   -0.8857 H   0  0  0  0  0  0  0  0  0  0  0  0
    6.8013    0.6456   -2.4232 H   0  0  0  0  0  0  0  0  0  0  0  0
  1  2  1  0  0  0  0
  2  3  1  0  0  0  0
  3  4  4  0  0  0  0
  4  5  4  0  0  0  0
  5  6  1  0  0  0  0
  6  7  2  0  0  0  0
  7  8  1  0  0  0  0
  8  9  2  0  0  0  0
  8 10  1  0  0  0  0
 10 11  1  0  0  0  0
 11 12  2  0  0  0  0
 11 13  1  0  0  0  0
 13 14  2  0  0  0  0
 14 15  1  0  0  0  0
 15 16  4  0  0  0  0
 16 17  4  0  0  0  0
 17 18  4  0  0  0  0
 18 19  1  0  0  0  0
 18 20  4  0  0  0  0
 20 21  1  0  0  0  0
 21 22  1  0  0  0  0
 15 23  4  0  0  0  0
 20 23  4  0  0  0  0
  5 24  4  0  0  0  0
 24 25  4  0  0  0  0
  3 26  4  0  0  0  0
 25 26  4  0  0  0  0
 26 27  1  0  0  0  0
  1 28  1  0  0  0  0
  1 29  1  0  0  0  0
  1 30  1  0  0  0  0
  4 31  1  0  0  0  0
  6 32  1  0  0  0  0
  7 33  1  0  0  0  0
 10 34  1  0  0  0  0
 10 35  1  0  0  0  0
 13 36  1  0  0  0  0
 14 37  1  0  0  0  0
 16 38  1  0  0  0  0
 17 39  1  0  0  0  0
 19 40  1  0  0  0  0
 22 41  1  0  0  0  0
 22 42  1  0  0  0  0
 22 43  1  0  0  0  0
 23 44  1  0  0  0  0
 24 45  1  0  0  0  0
 25 46  1  0  0  0  0
 27 47  1  0  0  0  0
 51 52  1  0  0  0  0
 48 54  1  0  0  0  0
 49 54  1  0  0  0  0
 49 55  1  0  0  0  0
 50 56  1  0  0  0  0
 55 56  1  0  0  0  0
 50 57  1  0  0  0  0
 51 57  1  0  0  0  0
 56 57  1  0  0  0  0
 52 58  1  0  0  0  0
 53 59  1  0  0  0  0
 54 60  1  0  0  0  0
 54 61  1  0  0  0  0
 55 61  1  0  0  0  0
 60 61  1  0  0  0  0
 56 62  1  0  0  0  0
 57 63  1  0  0  0  0
 62 63  1  0  0  0  0
 58 64  1  0  0  0  0
 59 64  1  0  0  0  0
 53 65  1  0  0  0  0
 59 65  1  0  0  0  0
 60 66  1  0  0  0  0
 60 67  1  0  0  0  0
 61 67  1  0  0  0  0
 62 68  1  0  0  0  0
 62 69  1  0  0  0  0
 63 69  1  0  0  0  0
 68 69  1  0  0  0  0
 64 70  1  0  0  0  0
 59 71  1  0  0  0  0
 64 71  1  0  0  0  0
 65 71  1  0  0  0  0
 70 71  1  0  0  0  0
 66 72  1  0  0  0  0
 67 73  1  0  0  0  0
 68 74  1  0  0  0  0
 68 75  1  0  0  0  0
 69 75  1  0  0  0  0
 74 75  1  0  0  0  0
 70 76  1  0  0  0  0
 70 77  1  0  0  0  0
 71 77  1  0  0  0  0
 72 78  1  0  0  0  0
 73 79  2  0  0  0  0
 74 80  1  0  0  0  0
 74 81  1  0  0  0  0
 75 81  1  0  0  0  0
 80 81  1  0  0  0  0
 76 82  1  0  0  0  0
 70 83  1  0  0  0  0
 76 83  1  0  0  0  0
 77 83  1  0  0  0  0
 78 84  1  0  0  0  0
 79 85  1  0  0  0  0
 80 86  1  0  0  0  0
 81 87  1  0  0  0  0
 82 88  1  0  0  0  0
 87 88  1  0  0  0  0
 76 89  1  0  0  0  0
 83 89  1  0  0  0  0
 48 90  2  0  0  0  0
 49 90  1  0  0  0  0
 54 90  1  0  0  0  0
 49 91  1  0  0  0  0
 50 91  1  0  0  0  0
 55 91  1  0  0  0  0
 56 91  1  0  0  0  0
 50 92  1  0  0  0  0
 51 92  1  0  0  0  0
 57 92  1  0  0  0  0
 51 93  1  0  0  0  0
 52 93  1  0  0  0  0
 57 93  1  0  0  0  0
 58 93  1  0  0  0  0
 63 93  1  0  0  0  0
 52 94  1  0  0  0  0
 53 94  1  0  0  0  0
 58 94  1  0  0  0  0
 59 94  1  0  0  0  0
 78 95  1  0  0  0  0
 79 95  1  0  0  0  0
 84 95  1  0  0  0  0
 85 95  1  0  0  0  0
 79 96  1  0  0  0  0
 80 96  1  0  0  0  0
 85 96  1  0  0  0  0
 86 96  1  0  0  0  0
 80 97  1  0  0  0  0
 81 97  1  0  0  0  0
 86 97  1  0  0  0  0
 87 97  1  0  0  0  0
 75 98  1  0  0  0  0
 81 98  1  0  0  0  0
 82 98  1  0  0  0  0
 87 98  1  0  0  0  0
 88 98  1  0  0  0  0
 76 99  1  0  0  0  0
 82 99  1  0  0  0  0
 88 99  1  0  0  0  0
 89 99  1  0  0  0  0
 60100  1  0  0  0  0
 66100  1  0  0  0  0
 67100  1  0  0  0  0
 72100  1  0  0  0  0
 78100  1  0  0  0  0
 48101  1  0  0  0  0
 66102  1  0  0  0  0
 72103  1  0  0  0  0
 84104  1  0  0  0  0
 53105  1  0  0  0  0
 65106  1  0  0  0  0
 77107  1  0  0  0  0
M  END
