 xtb: 6.7.1pre (5071a88)
          09012616353D

107148  0     0  0            999 V2000
    1.4151   -5.4894   11.2698 C   0  0  0  0  0  0  0  0  0  0  0  0
    1.3288   -6.2034   10.0639 O   0  0  0  0  0  0  0  0  0  0  0  0
    0.6694   -5.6320    9.0169 C   0  0  0  0  0  0  0  0  0  0  0  0
    0.0373   -4.4044    9.0345 C   0  0  0  0  0  0  0  0  0  0  0  0
   -0.6153   -3.8893    7.8995 C   0  0  0  0  0  0  0  0  0  0  0  0
   -1.2771   -2.6138    7.9883 C   0  0  0  0  0  0  0  0  0  0  0  0
   -1.7998   -1.8982    6.9651 C   0  0  0  0  0  0  0  0  0  0  0  0
   -2.5286   -0.6664    7.1779 C   0  0  0  0  0  0  0  0  0  0  0  0
   -2.7521   -0.1745    8.2789 O   0  0  0  0  0  0  0  0  0  0  0  0
   -2.9916    0.0233    5.8944 C   0  0  0  0  0  0  0  0  0  0  0  0
   -1.7784    0.8211    5.4356 C   0  0  0  0  0  0  0  0  0  0  0  0
   -1.1190    0.4731    4.4565 O   0  0  0  0  0  0  0  0  0  0  0  0
   -1.4986    1.9650    6.2705 C   0  0  0  0  0  0  0  0  0  0  0  0
   -0.3888    2.7340    6.1601 C   0  0  0  0  0  0  0  0  0  0  0  0
   -0.1011    3.9109    6.9383 C   0  0  0  0  0  0  0  0  0  0  0  0
   -1.0860    4.6008    7.6485 C   0  0  0  0  0  0  0  0  0  0  0  0
   -0.7735    5.7493    8.3494 C   0  0  0  0  0  0  0  0  0  0  0  0
    0.5227    6.2368    8.3857 C   0  0  0  0  0  0  0  0  0  0  0  0
    0.8600    7.3708    9.0640 O   0  0  0  0  0  0  0  0  0  0  0  0
    1.5402    5.5455    7.6961 C   0  0  0  0  0  0  0  0  0  0  0  0
    2.7869    6.0894    7.8011 O   0  0  0  0  0  0  0  0  0  0  0  0
    3.8682    5.3898    7.2388 C   0  0  0  0  0  0  0  0  0  0  0  0
    1.2130    4.4120    6.9772 C   0  0  0  0  0  0  0  0  0  0  0  0
   -0.6139   -4.6599    6.7354 C   0  0  0  0  0  0  0  0  0  0  0  0
    0.0029   -5.8952    6.7114 C   0  0  0  0  0  0  0  0  0  0  0  0
    0.6438   -6.3969    7.8325 C   0  0  0  0  0  0  0  0  0  0  0  0
    1.2514   -7.6157    7.8407 O   0  0  0  0  0  0  0  0  0  0  0  0
    1.9759   -6.1291   11.9523 H   0  0  0  0  0  0  0  0  0  0  0  0
    1.9527   -4.5445   11.1390 H   0  0  0  0  0  0  0  0  0  0  0  0
    0.4258   -5.2895   11.6966 H   0  0  0  0  0  0  0  0  0  0  0  0
    0.0374   -3.8086    9.9333 H   0  0  0  0  0  0  0  0  0  0  0  0
   -1.3792   -2.1903    8.9804 H   0  0  0  0  0  0  0  0  0  0  0  0
   -1.7076   -2.2349    5.9426 H   0  0  0  0  0  0  0  0  0  0  0  0
   -3.8249    0.6890    6.1200 H   0  0  0  0  0  0  0  0  0  0  0  0
   -3.2773   -0.7076    5.1395 H   0  0  0  0  0  0  0  0  0  0  0  0
   -2.2256    2.1704    7.0441 H   0  0  0  0  0  0  0  0  0  0  0  0
    0.3543    2.4412    5.4264 H   0  0  0  0  0  0  0  0  0  0  0  0
   -2.1062    4.2543    7.6369 H   0  0  0  0  0  0  0  0  0  0  0  0
   -1.5492    6.2846    8.8822 H   0  0  0  0  0  0  0  0  0  0  0  0
    0.0702    7.7448    9.4745 H   0  0  0  0  0  0  0  0  0  0  0  0
    4.7531    5.9830    7.4688 H   0  0  0  0  0  0  0  0  0  0  0  0
    3.7716    5.2948    6.1514 H   0  0  0  0  0  0  0  0  0  0  0  0
    3.9745    4.3945    7.6841 H   0  0  0  0  0  0  0  0  0  0  0  0
    1.9764    3.8737    6.4381 H   0  0  0  0  0  0  0  0  0  0  0  0
   -1.1149   -4.3067    5.8494 H   0  0  0  0  0  0  0  0  0  0  0  0
   -0.0165   -6.4913    5.8082 H   0  0  0  0  0  0  0  0  0  0  0  0
    1.1342   -8.0379    6.9809 H   0  0  0  0  0  0  0  0  0  0  0  0
   -6.8300   -4.6616    0.4834 B   0  0  0  0  0  0  0  0  0  0  0  0
   -5.1094   -2.1835    0.5758 B   0  0  0  0  0  0  0  0  0  0  0  0
   -3.5852   -2.1454    0.5136 B   0  0  0  0  0  0  0  0  0  0  0  0
    0.9958   -2.8401    0.4184 B   0  0  0  0  0  0  0  0  0  0  0  0
    2.4628   -3.0040    0.0291 B   0  0  0  0  0  0  0  0  0  0  0  0
    5.2410   -3.8003   -0.6299 B   0  0  0  0  0  0  0  0  0  0  0  0
    6.1624   -4.7661   -1.3406 B   0  0  0  0  0  0  0  0  0  0  0  0
   -6.4036   -3.1462    0.4949 B   0  0  0  0  0  0  0  0  0  0  0  0
   -6.7617   -1.6323    0.4618 B   0  0  0  0  0  0  0  0  0  0  0  0
   -2.0542   -2.2733    0.6559 B   0  0  0  0  0  0  0  0  0  0  0  0
   -0.4864   -2.4298    0.6073 B   0  0  0  0  0  0  0  0  0  0  0  0
    3.9989   -2.8751   -0.0944 B   0  0  0  0  0  0  0  0  0  0  0  0
    5.7445   -2.2976   -0.1626 B   0  0  0  0  0  0  0  0  0  0  0  0
    6.7881   -3.2322   -1.0091 B   0  0  0  0  0  0  0  0  0  0  0  0
   -7.6518   -0.2540    0.4642 B   0  0  0  0  0  0  0  0  0  0  0  0
   -6.0310   -0.1436    0.3227 B   0  0  0  0  0  0  0  0  0  0  0  0
   -4.4181   -0.5093    0.4093 B   0  0  0  0  0  0  0  0  0  0  0  0
   -2.7171   -0.6192    0.5085 B   0  0  0  0  0  0  0  0  0  0  0  0
   -1.0333   -0.8509    0.8337 B   0  0  0  0  0  0  0  0  0  0  0  0
    0.5337   -1.1159    0.9287 B   0  0  0  0  0  0  0  0  0  0  0  0
    3.1044   -1.4463    0.0309 B   0  0  0  0  0  0  0  0  0  0  0  0
    4.6857   -1.1449    0.4680 B   0  0  0  0  0  0  0  0  0  0  0  0
    6.2565   -0.7950    0.3604 B   0  0  0  0  0  0  0  0  0  0  0  0
    7.6819   -0.3526    1.0944 B   0  0  0  0  0  0  0  0  0  0  0  0
   -6.9019    1.2089    0.2647 B   0  0  0  0  0  0  0  0  0  0  0  0
   -3.4074    0.7988    0.1845 B   0  0  0  0  0  0  0  0  0  0  0  0
   -1.6492    0.5775    0.2512 B   0  0  0  0  0  0  0  0  0  0  0  0
    1.8554   -0.3523    0.4209 B   0  0  0  0  0  0  0  0  0  0  0  0
    3.5928   -0.1162    0.8746 B   0  0  0  0  0  0  0  0  0  0  0  0
    6.9685    0.5991   -0.0341 B   0  0  0  0  0  0  0  0  0  0  0  0
    8.3188    1.0498    0.6494 B   0  0  0  0  0  0  0  0  0  0  0  0
   -7.5834    2.8078    0.4148 B   0  0  0  0  0  0  0  0  0  0  0  0
   -6.1542    2.5049   -0.2165 B   0  0  0  0  0  0  0  0  0  0  0  0
   -3.5844    2.3274   -0.2084 B   0  0  0  0  0  0  0  0  0  0  0  0
   -0.8946    1.8503   -0.3194 B   0  0  0  0  0  0  0  0  0  0  0  0
    1.6127    1.0606   -0.3114 B   0  0  0  0  0  0  0  0  0  0  0  0
    3.0013    1.3333    0.6349 B   0  0  0  0  0  0  0  0  0  0  0  0
    6.3605    1.8660   -0.8232 B   0  0  0  0  0  0  0  0  0  0  0  0
   -6.5279    4.0389   -0.1378 B   0  0  0  0  0  0  0  0  0  0  0  0
   -4.8915    3.4642   -0.4236 B   0  0  0  0  0  0  0  0  0  0  0  0
   -3.4359    3.8683   -0.6222 B   0  0  0  0  0  0  0  0  0  0  0  0
   -2.0298    3.2388   -0.6354 B   0  0  0  0  0  0  0  0  0  0  0  0
   -0.4999    3.3162   -0.8064 B   0  0  0  0  0  0  0  0  0  0  0  0
    0.7120    2.3812   -0.6433 B   0  0  0  0  0  0  0  0  0  0  0  0
    2.3336    2.5205   -0.3601 B   0  0  0  0  0  0  0  0  0  0  0  0
    3.8139    2.6470    0.0198 B   0  0  0  0  0  0  0  0  0  0  0  0
    5.3714    2.8671   -0.0374 B   0  0  0  0  0  0  0  0  0  0  0  0
    6.0502    4.0552    0.7895 B   0  0  0  0  0  0  0  0  0  0  0  0
    6.2099    5.1422    0.3609 H   0  0  0  0  0  0  0  0  0  0  0  0
    8.2633   -1.1110    1.7701 H   0  0  0  0  0  0  0  0  0  0  0  0
    6.5975    2.0006   -1.9750 H   0  0  0  0  0  0  0  0  0  0  0  0
   -6.8496   -5.3109   -0.5082 H   0  0  0  0  0  0  0  0  0  0  0  0
   -6.7869    5.1729   -0.2663 H   0  0  0  0  0  0  0  0  0  0  0  0
    9.1799    1.8258    0.7675 H   0  0  0  0  0  0  0  0  0  0  0  0
   -8.8230   -0.3355    0.4539 H   0  0  0  0  0  0  0  0  0  0  0  0
    6.5477   -5.7485   -1.8390 H   0  0  0  0  0  0  0  0  0  0  0  0
   -8.6485    3.0019    0.8578 H   0  0  0  0  0  0  0  0  0  0  0  0
    7.8902   -2.9357   -1.2927 H   0  0  0  0  0  0  0  0  0  0  0  0
    6.4198    3.9047    1.9001 H   0  0  0  0  0  0  0  0  0  0  0  0
   -7.2176   -5.2539    1.4320 H   0  0  0  0  0  0  0  0  0  0  0  0
  1  2  1  0  0  0  0
  2  3  1  0  0  0  0
  3  4  4  0  0  0  0
  4  5  4  0  0  0  0
  5  6  1  0  0  0  0
  6  7  2  0  0  0  0
  7  8  1  0  0  0  0
  8  9  2  0  0  0  0
  8 10  1  0  0  0  0
 10 11  1  0  0  0  0
 11 12  2  0  0  0  0
 11 13  1  0  0  0  0
 13 14  2  0  0  0  0
 14 15  1  0  0  0  0
 15 16  4  0  0  0  0
 16 17  4  0  0  0  0
 17 18  4  0  0  0  0
 18 19  1  0  0  0  0
 18 20  4  0  0  0  0
 20 21  1  0  0  0  0
 21 22  1  0  0  0  0
 15 23  4  0  0  0  0
 20 23  4  0  0  0  0
  5 24  4  0  0  0  0
 24 25  4  0  0  0  0
  3 26  4  0  0  0  0
 25 26  4  0  0  0  0
 26 27  1  0  0  0  0
  1 28  1  0  0  0  0
  1 29  1  0  0  0  0
  1 30  1  0  0  0  0
  4 31  1  0  0  0  0
  6 32  1  0  0  0  0
  7 33  1  0  0  0  0
 10 34  1  0  0  0  0
 10 35  1  0  0  0  0
 13 36  1  0  0  0  0
 14 37  1  0  0  0  0
 16 38  1  0  0  0  0
 17 39  1  0  0  0  0
 19 40  1  0  0  0  0
 22 41  1  0  0  0  0
 22 42  1  0  0  0  0
 22 43  1  0  0  0  0
 23 44  1  0  0  0  0
 24 45  1  0  0  0  0
 25 46  1  0  0  0  0
 27 47  1  0  0  0  0
 49 50  1  0  0  0  0
 51 52  2  0  0  0  0
 53 54  2  0  0  0  0
 48 55  1  0  0  0  0
 49 55  1  0  0  0  0
 49 56  1  0  0  0  0
 55 56  1  0  0  0  0
 50 57  1  0  0  0  0
 51 58  1  0  0  0  0
 57 58  1  0  0  0  0
 52 59  1  0  0  0  0
 53 59  1  0  0  0  0
 53 60  1  0  0  0  0
 59 60  1  0  0  0  0
 53 61  1  0  0  0  0
 54 61  1  0  0  0  0
 60 61  1  0  0  0  0
 56 62  1  0  0  0  0
 56 63  1  0  0  0  0
 62 63  1  0  0  0  0
 49 64  1  0  0  0  0
 50 64  1  0  0  0  0
 63 64  1  0  0  0  0
 50 65  1  0  0  0  0
 57 65  1  0  0  0  0
 64 65  1  0  0  0  0
 57 66  1  0  0  0  0
 58 66  1  0  0  0  0
 65 66  1  0  0  0  0
 51 67  1  0  0  0  0
 58 67  1  0  0  0  0
 66 67  1  0  0  0  0
 52 68  1  0  0  0  0
 59 68  1  0  0  0  0
 59 69  1  0  0  0  0
 60 69  1  0  0  0  0
 68 69  1  0  0  0  0
 60 70  1  0  0  0  0
 69 70  1  0  0  0  0
 70 71  1  0  0  0  0
 62 72  1  0  0  0  0
 63 72  1  0  0  0  0
 64 73  1  0  0  0  0
 65 73  1  0  0  0  0
 65 74  1  0  0  0  0
 66 74  1  0  0  0  0
 73 74  1  0  0  0  0
 67 75  1  0  0  0  0
 68 75  1  0  0  0  0
 68 76  1  0  0  0  0
 69 76  1  0  0  0  0
 75 76  1  0  0  0  0
 70 77  1  0  0  0  0
 71 77  1  0  0  0  0
 71 78  1  0  0  0  0
 77 78  1  0  0  0  0
 72 79  1  0  0  0  0
 72 80  1  0  0  0  0
 79 80  1  0  0  0  0
 73 81  1  0  0  0  0
 74 82  1  0  0  0  0
 75 83  1  0  0  0  0
 76 84  1  0  0  0  0
 83 84  1  0  0  0  0
 77 85  1  0  0  0  0
 79 86  1  0  0  0  0
 80 86  1  0  0  0  0
 80 87  1  0  0  0  0
 81 87  1  0  0  0  0
 86 87  1  0  0  0  0
 81 88  1  0  0  0  0
 87 88  1  0  0  0  0
 81 89  1  0  0  0  0
 82 89  1  0  0  0  0
 88 89  1  0  0  0  0
 82 90  1  0  0  0  0
 89 90  1  0  0  0  0
 82 91  1  0  0  0  0
 83 91  1  0  0  0  0
 90 91  1  0  0  0  0
 83 92  1  0  0  0  0
 84 92  1  0  0  0  0
 91 92  1  0  0  0  0
 84 93  1  0  0  0  0
 92 93  1  0  0  0  0
 85 94  1  0  0  0  0
 93 94  1  0  0  0  0
 94 95  1  0  0  0  0
 95 96  1  0  0  0  0
 71 97  1  0  0  0  0
 85 98  1  0  0  0  0
 48 99  1  0  0  0  0
 86100  1  0  0  0  0
 78101  1  0  0  0  0
 62102  1  0  0  0  0
 54103  1  0  0  0  0
 79104  1  0  0  0  0
 61105  1  0  0  0  0
 95106  1  0  0  0  0
 48107  1  0  0  0  0
M  END
