 xtb: 6.7.1pre (5071a88)
          08312620213D

107140  0     0  0            999 V2000
    5.5009    1.6394    7.0001 C   0  0  0  0  0  0  0  0  0  0  0  0
    6.2748    1.5276    5.8148 O   0  0  0  0  0  0  0  0  0  0  0  0
    5.7915    0.7239    4.8156 C   0  0  0  0  0  0  0  0  0  0  0  0
    4.6012   -0.0096    4.8783 C   0  0  0  0  0  0  0  0  0  0  0  0
    4.1820   -0.8011    3.7955 C   0  0  0  0  0  0  0  0  0  0  0  0
    2.9364   -1.5709    3.9270 C   0  0  0  0  0  0  0  0  0  0  0  0
    2.0822   -1.7952    2.9177 C   0  0  0  0  0  0  0  0  0  0  0  0
    0.8304   -2.5684    3.1564 C   0  0  0  0  0  0  0  0  0  0  0  0
    0.5038   -2.9418    4.2815 O   0  0  0  0  0  0  0  0  0  0  0  0
   -0.0369   -2.8503    1.9633 C   0  0  0  0  0  0  0  0  0  0  0  0
   -0.8851   -1.6673    1.5942 C   0  0  0  0  0  0  0  0  0  0  0  0
   -0.5533   -0.9061    0.6875 O   0  0  0  0  0  0  0  0  0  0  0  0
   -2.1241   -1.4453    2.3926 C   0  0  0  0  0  0  0  0  0  0  0  0
   -2.9625   -0.4495    2.0696 C   0  0  0  0  0  0  0  0  0  0  0  0
   -4.1941   -0.1378    2.8094 C   0  0  0  0  0  0  0  0  0  0  0  0
   -5.0129   -1.1363    3.3516 C   0  0  0  0  0  0  0  0  0  0  0  0
   -6.1892   -0.8000    4.0240 C   0  0  0  0  0  0  0  0  0  0  0  0
   -6.5547    0.5393    4.1463 C   0  0  0  0  0  0  0  0  0  0  0  0
   -7.7085    0.8705    4.8058 O   0  0  0  0  0  0  0  0  0  0  0  0
   -5.7620    1.5572    3.6002 C   0  0  0  0  0  0  0  0  0  0  0  0
   -6.2183    2.8376    3.7732 O   0  0  0  0  0  0  0  0  0  0  0  0
   -5.4292    3.8933    3.2449 C   0  0  0  0  0  0  0  0  0  0  0  0
   -4.5857    1.2066    2.9279 C   0  0  0  0  0  0  0  0  0  0  0  0
    4.9869   -0.8721    2.6516 C   0  0  0  0  0  0  0  0  0  0  0  0
    6.1768   -0.1461    2.5766 C   0  0  0  0  0  0  0  0  0  0  0  0
    6.5700    0.6466    3.6534 C   0  0  0  0  0  0  0  0  0  0  0  0
    7.7372    1.3595    3.5811 O   0  0  0  0  0  0  0  0  0  0  0  0
    6.0251    2.3188    7.6792 H   0  0  0  0  0  0  0  0  0  0  0  0
    4.5173    2.0728    6.7909 H   0  0  0  0  0  0  0  0  0  0  0  0
    5.4086    0.6719    7.5043 H   0  0  0  0  0  0  0  0  0  0  0  0
    3.9748    0.0266    5.7642 H   0  0  0  0  0  0  0  0  0  0  0  0
    2.7140   -1.9448    4.9258 H   0  0  0  0  0  0  0  0  0  0  0  0
    2.2458   -1.4190    1.9142 H   0  0  0  0  0  0  0  0  0  0  0  0
   -0.6739   -3.7175    2.1714 H   0  0  0  0  0  0  0  0  0  0  0  0
    0.5850   -3.1352    1.1071 H   0  0  0  0  0  0  0  0  0  0  0  0
   -2.2916   -2.1044    3.2370 H   0  0  0  0  0  0  0  0  0  0  0  0
   -2.7363    0.2055    1.2290 H   0  0  0  0  0  0  0  0  0  0  0  0
   -4.7543   -2.1871    3.2487 H   0  0  0  0  0  0  0  0  0  0  0  0
   -6.8069   -1.5907    4.4381 H   0  0  0  0  0  0  0  0  0  0  0  0
   -8.1357    0.0621    5.1271 H   0  0  0  0  0  0  0  0  0  0  0  0
   -5.9324    4.8366    3.4784 H   0  0  0  0  0  0  0  0  0  0  0  0
   -5.3502    3.8202    2.1552 H   0  0  0  0  0  0  0  0  0  0  0  0
   -4.4397    3.9201    3.7131 H   0  0  0  0  0  0  0  0  0  0  0  0
   -3.9489    1.9700    2.4917 H   0  0  0  0  0  0  0  0  0  0  0  0
    4.7066   -1.5006    1.8100 H   0  0  0  0  0  0  0  0  0  0  0  0
    6.7834   -0.2149    1.6791 H   0  0  0  0  0  0  0  0  0  0  0  0
    8.1519    1.2059    2.7187 H   0  0  0  0  0  0  0  0  0  0  0  0
   -7.5000   -4.5000    0.0000 B   0  0  0  0  0  0  0  0  0  0  0  0
   -4.5000   -4.5000    0.0000 B   0  0  0  0  0  0  0  0  0  0  0  0
   -1.5000   -4.5000    0.0000 B   0  0  0  0  0  0  0  0  0  0  0  0
    1.5000   -4.5000    0.0000 B   0  0  0  0  0  0  0  0  0  0  0  0
    4.5000   -4.5000    0.0000 B   0  0  0  0  0  0  0  0  0  0  0  0
    7.5000   -4.5000    0.0000 B   0  0  0  0  0  0  0  0  0  0  0  0
   -7.5000   -3.0000    0.0000 B   0  0  0  0  0  0  0  0  0  0  0  0
   -4.5000   -3.0000    0.0000 B   0  0  0  0  0  0  0  0  0  0  0  0
   -1.5000   -3.0000    0.0000 B   0  0  0  0  0  0  0  0  0  0  0  0
    1.5000   -3.0000    0.0000 B   0  0  0  0  0  0  0  0  0  0  0  0
    4.5000   -3.0000    0.0000 B   0  0  0  0  0  0  0  0  0  0  0  0
    7.5000   -3.0000    0.0000 B   0  0  0  0  0  0  0  0  0  0  0  0
   -7.5000   -1.5000    0.0000 B   0  0  0  0  0  0  0  0  0  0  0  0
   -4.5000   -1.5000    0.0000 B   0  0  0  0  0  0  0  0  0  0  0  0
   -1.5000   -1.5000    0.0000 B   0  0  0  0  0  0  0  0  0  0  0  0
    1.5000   -1.5000    0.0000 B   0  0  0  0  0  0  0  0  0  0  0  0
    4.5000   -1.5000    0.0000 B   0  0  0  0  0  0  0  0  0  0  0  0
    7.5000   -1.5000    0.0000 B   0  0  0  0  0  0  0  0  0  0  0  0
   -7.5000    0.0000    0.0000 B   0  0  0  0  0  0  0  0  0  0  0  0
   -4.5000    0.0000    0.0000 B   0  0  0  0  0  0  0  0  0  0  0  0
   -1.5000    0.0000    0.0000 B   0  0  0  0  0  0  0  0  0  0  0  0
    1.5000    0.0000    0.0000 B   0  0  0  0  0  0  0  0  0  0  0  0
    4.5000    0.0000    0.0000 B   0  0  0  0  0  0  0  0  0  0  0  0
    7.5000    0.0000    0.0000 B   0  0  0  0  0  0  0  0  0  0  0  0
   -7.5000    1.5000    0.0000 B   0  0  0  0  0  0  0  0  0  0  0  0
   -4.5000    1.5000    0.0000 B   0  0  0  0  0  0  0  0  0  0  0  0
   -1.5000    1.5000    0.0000 B   0  0  0  0  0  0  0  0  0  0  0  0
    1.5000    1.5000    0.0000 B   0  0  0  0  0  0  0  0  0  0  0  0
    4.5000    1.5000    0.0000 B   0  0  0  0  0  0  0  0  0  0  0  0
    7.5000    1.5000    0.0000 B   0  0  0  0  0  0  0  0  0  0  0  0
   -7.5000    3.0000    0.0000 B   0  0  0  0  0  0  0  0  0  0  0  0
   -4.5000    3.0000    0.0000 B   0  0  0  0  0  0  0  0  0  0  0  0
   -1.5000    3.0000    0.0000 B   0  0  0  0  0  0  0  0  0  0  0  0
    1.5000    3.0000    0.0000 B   0  0  0  0  0  0  0  0  0  0  0  0
    4.5000    3.0000    0.0000 B   0  0  0  0  0  0  0  0  0  0  0  0
    7.5000    3.0000    0.0000 B   0  0  0  0  0  0  0  0  0  0  0  0
   -7.5000    4.5000    0.0000 B   0  0  0  0  0  0  0  0  0  0  0  0
   -4.5000    4.5000    0.0000 B   0  0  0  0  0  0  0  0  0  0  0  0
   -1.5000    4.5000    0.0000 B   0  0  0  0  0  0  0  0  0  0  0  0
    1.5000    4.5000    0.0000 B   0  0  0  0  0  0  0  0  0  0  0  0
    4.5000    4.5000    0.0000 B   0  0  0  0  0  0  0  0  0  0  0  0
    7.5000    4.5000    0.0000 B   0  0  0  0  0  0  0  0  0  0  0  0
   -6.0000   -3.7500    0.0000 B   0  0  0  0  0  0  0  0  0  0  0  0
   -3.0000   -3.7500    0.0000 B   0  0  0  0  0  0  0  0  0  0  0  0
    0.0000   -3.7500    0.0000 B   0  0  0  0  0  0  0  0  0  0  0  0
    3.0000   -3.7500    0.0000 B   0  0  0  0  0  0  0  0  0  0  0  0
    6.0000   -3.7500    0.0000 B   0  0  0  0  0  0  0  0  0  0  0  0
   -6.0000    3.7500    0.0000 B   0  0  0  0  0  0  0  0  0  0  0  0
   -3.0000    3.7500    0.0000 B   0  0  0  0  0  0  0  0  0  0  0  0
    0.0000    3.7500    0.0000 B   0  0  0  0  0  0  0  0  0  0  0  0
    3.0000    3.7500    0.0000 B   0  0  0  0  0  0  0  0  0  0  0  0
    6.0000    3.7500    0.0000 B   0  0  0  0  0  0  0  0  0  0  0  0
   -6.0000    0.0000    0.0000 B   0  0  0  0  0  0  0  0  0  0  0  0
   -8.6000   -4.5000    0.0000 H   0  0  0  0  0  0  0  0  0  0  0  0
   -8.6000   -1.5000    0.0000 H   0  0  0  0  0  0  0  0  0  0  0  0
   -8.6000    1.5000    0.0000 H   0  0  0  0  0  0  0  0  0  0  0  0
   -8.6000    4.5000    0.0000 H   0  0  0  0  0  0  0  0  0  0  0  0
    8.6000   -4.5000    0.0000 H   0  0  0  0  0  0  0  0  0  0  0  0
    8.6000   -1.5000    0.0000 H   0  0  0  0  0  0  0  0  0  0  0  0
    8.6000    1.5000    0.0000 H   0  0  0  0  0  0  0  0  0  0  0  0
  1  2  1  0  0  0  0
  2  3  1  0  0  0  0
  3  4  4  0  0  0  0
  4  5  4  0  0  0  0
  5  6  1  0  0  0  0
  6  7  2  0  0  0  0
  7  8  1  0  0  0  0
  8  9  2  0  0  0  0
  8 10  1  0  0  0  0
 10 11  1  0  0  0  0
 11 12  1  0  0  0  0
 11 13  1  0  0  0  0
 13 14  2  0  0  0  0
 14 15  1  0  0  0  0
 15 16  4  0  0  0  0
 16 17  4  0  0  0  0
 17 18  4  0  0  0  0
 18 19  1  0  0  0  0
 18 20  4  0  0  0  0
 20 21  1  0  0  0  0
 21 22  1  0  0  0  0
 15 23  4  0  0  0  0
 20 23  4  0  0  0  0
  5 24  4  0  0  0  0
 24 25  4  0  0  0  0
  3 26  4  0  0  0  0
 25 26  4  0  0  0  0
 26 27  1  0  0  0  0
  1 28  1  0  0  0  0
  1 29  1  0  0  0  0
  1 30  1  0  0  0  0
  4 31  1  0  0  0  0
  6 32  1  0  0  0  0
  7 33  1  0  0  0  0
 10 34  1  0  0  0  0
 10 35  1  0  0  0  0
 13 36  1  0  0  0  0
 14 37  1  0  0  0  0
 16 38  1  0  0  0  0
 17 39  1  0  0  0  0
 19 40  1  0  0  0  0
 22 41  1  0  0  0  0
 22 42  1  0  0  0  0
 22 43  1  0  0  0  0
 23 44  1  0  0  0  0
 24 45  1  0  0  0  0
 25 46  1  0  0  0  0
 27 47  1  0  0  0  0
 48 54  1  0  0  0  0
 49 55  1  0  0  0  0
 50 56  1  0  0  0  0
 51 57  1  0  0  0  0
 52 58  1  0  0  0  0
 53 59  1  0  0  0  0
 54 60  1  0  0  0  0
 55 61  1  0  0  0  0
 11 62  1  0  0  0  0
 12 62  1  0  0  0  0
 56 62  1  0  0  0  0
 57 63  1  0  0  0  0
 58 64  1  0  0  0  0
 59 65  1  0  0  0  0
 60 66  1  0  0  0  0
 61 67  1  0  0  0  0
 12 68  1  0  0  0  0
 62 68  1  0  0  0  0
 63 69  2  0  0  0  0
 64 70  2  0  0  0  0
 65 71  1  0  0  0  0
 66 72  1  0  0  0  0
 67 73  1  0  0  0  0
 68 74  2  0  0  0  0
 69 75  2  0  0  0  0
 70 76  2  0  0  0  0
 71 77  2  0  0  0  0
 72 78  1  0  0  0  0
 73 79  1  0  0  0  0
 74 80  1  0  0  0  0
 75 81  1  0  0  0  0
 76 82  1  0  0  0  0
 77 83  1  0  0  0  0
 78 84  1  0  0  0  0
 79 85  1  0  0  0  0
 80 86  1  0  0  0  0
 81 87  1  0  0  0  0
 82 88  1  0  0  0  0
 83 89  2  0  0  0  0
 48 90  1  0  0  0  0
 49 90  1  0  0  0  0
 54 90  1  0  0  0  0
 55 90  1  0  0  0  0
 49 91  1  0  0  0  0
 50 91  1  0  0  0  0
 55 91  1  0  0  0  0
 56 91  1  0  0  0  0
 50 92  1  0  0  0  0
 51 92  1  0  0  0  0
 56 92  1  0  0  0  0
 57 92  1  0  0  0  0
 51 93  1  0  0  0  0
 52 93  1  0  0  0  0
 57 93  1  0  0  0  0
 58 93  1  0  0  0  0
 52 94  1  0  0  0  0
 53 94  1  0  0  0  0
 58 94  1  0  0  0  0
 59 94  1  0  0  0  0
 78 95  1  0  0  0  0
 79 95  1  0  0  0  0
 84 95  1  0  0  0  0
 85 95  1  0  0  0  0
 79 96  1  0  0  0  0
 80 96  1  0  0  0  0
 85 96  1  0  0  0  0
 86 96  1  0  0  0  0
 80 97  1  0  0  0  0
 81 97  1  0  0  0  0
 86 97  1  0  0  0  0
 87 97  1  0  0  0  0
 81 98  1  0  0  0  0
 82 98  1  0  0  0  0
 87 98  1  0  0  0  0
 88 98  1  0  0  0  0
 82 99  1  0  0  0  0
 83 99  1  0  0  0  0
 88 99  1  0  0  0  0
 89 99  1  0  0  0  0
 60100  1  0  0  0  0
 61100  1  0  0  0  0
 66100  1  0  0  0  0
 67100  1  0  0  0  0
 72100  1  0  0  0  0
 73100  1  0  0  0  0
 48101  1  0  0  0  0
 60102  1  0  0  0  0
 72103  1  0  0  0  0
 84104  1  0  0  0  0
 53105  1  0  0  0  0
 65106  1  0  0  0  0
 77107  1  0  0  0  0
M  END
