 xtb: 6.7.1pre (5071a88)
          09012620323D

102138  0     0  0            999 V2000
   -0.6859   -5.6869   10.8756 C   0  0  0  0  0  0  0  0  0  0  0  0
    0.2083   -5.8671    9.8075 O   0  0  0  0  0  0  0  0  0  0  0  0
    0.1893   -4.9607    8.7902 C   0  0  0  0  0  0  0  0  0  0  0  0
   -0.6334   -3.8541    8.7244 C   0  0  0  0  0  0  0  0  0  0  0  0
   -0.6014   -2.9689    7.6341 C   0  0  0  0  0  0  0  0  0  0  0  0
   -1.4881   -1.8366    7.6499 C   0  0  0  0  0  0  0  0  0  0  0  0
   -1.6862   -0.9216    6.6758 C   0  0  0  0  0  0  0  0  0  0  0  0
   -2.6564    0.1422    6.8564 C   0  0  0  0  0  0  0  0  0  0  0  0
   -3.2593    0.3511    7.8999 O   0  0  0  0  0  0  0  0  0  0  0  0
   -2.8144    1.0623    5.6508 C   0  0  0  0  0  0  0  0  0  0  0  0
   -1.5061    1.7936    5.6254 C   0  0  0  0  0  0  0  0  0  0  0  0
   -0.6197    1.5727    4.6405 O   0  0  0  0  0  0  0  0  0  0  0  0
   -1.1614    2.6642    6.6459 C   0  0  0  0  0  0  0  0  0  0  0  0
   -0.0283    3.4545    6.6373 C   0  0  0  0  0  0  0  0  0  0  0  0
    0.3451    4.4030    7.6286 C   0  0  0  0  0  0  0  0  0  0  0  0
   -0.2903    4.5070    8.8740 C   0  0  0  0  0  0  0  0  0  0  0  0
    0.1091    5.4578    9.7894 C   0  0  0  0  0  0  0  0  0  0  0  0
    1.1402    6.3413    9.5083 C   0  0  0  0  0  0  0  0  0  0  0  0
    1.5468    7.2964   10.3971 O   0  0  0  0  0  0  0  0  0  0  0  0
    1.7960    6.2588    8.2641 C   0  0  0  0  0  0  0  0  0  0  0  0
    2.7938    7.1737    8.0635 O   0  0  0  0  0  0  0  0  0  0  0  0
    3.4392    7.1896    6.8180 C   0  0  0  0  0  0  0  0  0  0  0  0
    1.4026    5.2973    7.3584 C   0  0  0  0  0  0  0  0  0  0  0  0
    0.2963   -3.2290    6.5975 C   0  0  0  0  0  0  0  0  0  0  0  0
    1.1331   -4.3271    6.6571 C   0  0  0  0  0  0  0  0  0  0  0  0
    1.0955   -5.1982    7.7350 C   0  0  0  0  0  0  0  0  0  0  0  0
    1.9077   -6.2876    7.8155 O   0  0  0  0  0  0  0  0  0  0  0  0
   -0.5038   -6.5178   11.5558 H   0  0  0  0  0  0  0  0  0  0  0  0
   -0.5039   -4.7436   11.4023 H   0  0  0  0  0  0  0  0  0  0  0  0
   -1.7279   -5.7174   10.5392 H   0  0  0  0  0  0  0  0  0  0  0  0
   -1.3295   -3.6476    9.5219 H   0  0  0  0  0  0  0  0  0  0  0  0
   -2.0727   -1.7013    8.5517 H   0  0  0  0  0  0  0  0  0  0  0  0
   -1.1643   -0.9717    5.7336 H   0  0  0  0  0  0  0  0  0  0  0  0
   -3.6538    1.7385    5.8178 H   0  0  0  0  0  0  0  0  0  0  0  0
   -2.9730    0.4902    4.7370 H   0  0  0  0  0  0  0  0  0  0  0  0
   -1.8676    2.7418    7.4576 H   0  0  0  0  0  0  0  0  0  0  0  0
    0.6143    3.3835    5.7700 H   0  0  0  0  0  0  0  0  0  0  0  0
   -1.0900    3.8324    9.1318 H   0  0  0  0  0  0  0  0  0  0  0  0
   -0.3882    5.5236   10.7493 H   0  0  0  0  0  0  0  0  0  0  0  0
    1.0086    7.2282   11.1945 H   0  0  0  0  0  0  0  0  0  0  0  0
    4.1510    8.0127    6.8667 H   0  0  0  0  0  0  0  0  0  0  0  0
    2.7327    7.3700    5.9995 H   0  0  0  0  0  0  0  0  0  0  0  0
    3.9811    6.2561    6.6288 H   0  0  0  0  0  0  0  0  0  0  0  0
    1.8946    5.2205    6.4011 H   0  0  0  0  0  0  0  0  0  0  0  0
    0.3532   -2.5706    5.7467 H   0  0  0  0  0  0  0  0  0  0  0  0
    1.8334   -4.5150    5.8540 H   0  0  0  0  0  0  0  0  0  0  0  0
    2.4843   -6.3120    7.0406 H   0  0  0  0  0  0  0  0  0  0  0  0
   -4.5141   -2.9379   -0.0101 B   0  0  0  0  0  0  0  0  0  0  0  0
   -3.9436   -1.4820   -0.4107 B   0  0  0  0  0  0  0  0  0  0  0  0
   -3.0632   -0.3519   -1.2537 B   0  0  0  0  0  0  0  0  0  0  0  0
   -2.9265   -2.8492   -0.0701 B   0  0  0  0  0  0  0  0  0  0  0  0
   -2.1748   -0.0532   -0.0188 B   0  0  0  0  0  0  0  0  0  0  0  0
   -4.0105    0.0453    0.3402 B   0  0  0  0  0  0  0  0  0  0  0  0
   -5.1304    1.1953    0.5389 B   0  0  0  0  0  0  0  0  0  0  0  0
   -4.5947    2.7174    0.4577 B   0  0  0  0  0  0  0  0  0  0  0  0
   -2.8412    0.1506    1.4968 B   0  0  0  0  0  0  0  0  0  0  0  0
   -3.8066    3.3771    1.7107 B   0  0  0  0  0  0  0  0  0  0  0  0
   -1.6406   -3.8736   -0.2149 B   0  0  0  0  0  0  0  0  0  0  0  0
   -1.4372   -2.4940    0.5940 B   0  0  0  0  0  0  0  0  0  0  0  0
   -1.4181   -0.9639    1.1290 B   0  0  0  0  0  0  0  0  0  0  0  0
   -0.3990   -3.7242    0.8888 B   0  0  0  0  0  0  0  0  0  0  0  0
   -0.3787   -0.9293    2.4934 B   0  0  0  0  0  0  0  0  0  0  0  0
   -1.7508   -0.2196    2.6761 B   0  0  0  0  0  0  0  0  0  0  0  0
   -2.1862    1.3914    2.3462 B   0  0  0  0  0  0  0  0  0  0  0  0
   -2.3104    2.8270    1.7027 B   0  0  0  0  0  0  0  0  0  0  0  0
   -0.8039    1.2042    3.3104 B   0  0  0  0  0  0  0  0  0  0  0  0
   -0.9643    3.6233    1.0833 B   0  0  0  0  0  0  0  0  0  0  0  0
    0.8909   -4.6984    1.1950 B   0  0  0  0  0  0  0  0  0  0  0  0
    0.7101   -3.3065    2.0049 B   0  0  0  0  0  0  0  0  0  0  0  0
    1.0301   -1.8336    2.5122 B   0  0  0  0  0  0  0  0  0  0  0  0
    2.1288   -4.2180    2.1758 B   0  0  0  0  0  0  0  0  0  0  0  0
    2.4742   -1.1198    2.2072 B   0  0  0  0  0  0  0  0  0  0  0  0
    1.1636   -0.2195    2.3542 B   0  0  0  0  0  0  0  0  0  0  0  0
    0.6352    1.4161    2.3852 B   0  0  0  0  0  0  0  0  0  0  0  0
    0.1779    2.6078    1.4004 B   0  0  0  0  0  0  0  0  0  0  0  0
    1.9975    0.9665    1.6226 B   0  0  0  0  0  0  0  0  0  0  0  0
    0.7445    1.5575    0.2647 B   0  0  0  0  0  0  0  0  0  0  0  0
    3.2107   -4.6527    3.3697 B   0  0  0  0  0  0  0  0  0  0  0  0
    3.6395   -3.5898    2.1754 B   0  0  0  0  0  0  0  0  0  0  0  0
    3.8076   -2.0633    1.7211 B   0  0  0  0  0  0  0  0  0  0  0  0
    4.5556   -3.7975    3.4501 B   0  0  0  0  0  0  0  0  0  0  0  0
    4.9660   -1.2723    0.7987 B   0  0  0  0  0  0  0  0  0  0  0  0
    3.9343   -0.4378    1.7426 B   0  0  0  0  0  0  0  0  0  0  0  0
    3.5638    1.1520    1.0739 B   0  0  0  0  0  0  0  0  0  0  0  0
    2.3334    1.5160    0.0061 B   0  0  0  0  0  0  0  0  0  0  0  0
    5.0560    0.4684    0.9287 B   0  0  0  0  0  0  0  0  0  0  0  0
    3.8039    1.4585   -0.5022 B   0  0  0  0  0  0  0  0  0  0  0  0
   -5.3295   -3.5708    0.5435 H   0  0  0  0  0  0  0  0  0  0  0  0
   -5.0209   -2.1486   -0.9057 H   0  0  0  0  0  0  0  0  0  0  0  0
   -3.2529   -0.0745   -2.3799 H   0  0  0  0  0  0  0  0  0  0  0  0
   -6.2559    0.9238    0.7741 H   0  0  0  0  0  0  0  0  0  0  0  0
   -4.7534    3.3443   -0.5282 H   0  0  0  0  0  0  0  0  0  0  0  0
   -4.3382    4.0822    2.4858 H   0  0  0  0  0  0  0  0  0  0  0  0
   -1.6354   -4.7043   -1.0423 H   0  0  0  0  0  0  0  0  0  0  0  0
   -1.0219    4.6057    0.4408 H   0  0  0  0  0  0  0  0  0  0  0  0
    1.0200   -5.7879    0.7953 H   0  0  0  0  0  0  0  0  0  0  0  0
    0.0247    0.9058   -0.4036 H   0  0  0  0  0  0  0  0  0  0  0  0
    2.9953   -5.6469    3.9510 H   0  0  0  0  0  0  0  0  0  0  0  0
    5.5356   -3.5199    4.0186 H   0  0  0  0  0  0  0  0  0  0  0  0
    5.7796   -1.8294    0.1754 H   0  0  0  0  0  0  0  0  0  0  0  0
    6.0998    0.9952    1.0540 H   0  0  0  0  0  0  0  0  0  0  0  0
    4.5120    1.6657   -1.4059 H   0  0  0  0  0  0  0  0  0  0  0  0
  1  2  1  0  0  0  0
  2  3  1  0  0  0  0
  3  4  4  0  0  0  0
  4  5  4  0  0  0  0
  5  6  1  0  0  0  0
  6  7  2  0  0  0  0
  7  8  1  0  0  0  0
  8  9  2  0  0  0  0
  8 10  1  0  0  0  0
 10 11  1  0  0  0  0
 11 12  1  0  0  0  0
 11 13  4  0  0  0  0
 13 14  4  0  0  0  0
 14 15  4  0  0  0  0
 15 16  4  0  0  0  0
 16 17  4  0  0  0  0
 17 18  4  0  0  0  0
 18 19  1  0  0  0  0
 18 20  4  0  0  0  0
 20 21  1  0  0  0  0
 21 22  1  0  0  0  0
 15 23  4  0  0  0  0
 20 23  4  0  0  0  0
  5 24  4  0  0  0  0
 24 25  4  0  0  0  0
  3 26  4  0  0  0  0
 25 26  4  0  0  0  0
 26 27  1  0  0  0  0
  1 28  1  0  0  0  0
  1 29  1  0  0  0  0
  1 30  1  0  0  0  0
  4 31  1  0  0  0  0
  6 32  1  0  0  0  0
  7 33  1  0  0  0  0
 10 34  1  0  0  0  0
 10 35  1  0  0  0  0
 13 36  1  0  0  0  0
 14 37  1  0  0  0  0
 16 38  1  0  0  0  0
 17 39  1  0  0  0  0
 19 40  1  0  0  0  0
 22 41  1  0  0  0  0
 22 42  1  0  0  0  0
 22 43  1  0  0  0  0
 23 44  1  0  0  0  0
 24 45  1  0  0  0  0
 25 46  1  0  0  0  0
 27 47  1  0  0  0  0
 48 49  1  0  0  0  0
 49 50  1  0  0  0  0
 48 51  1  0  0  0  0
 49 51  1  0  0  0  0
 50 52  1  0  0  0  0
 49 53  1  0  0  0  0
 50 53  1  0  0  0  0
 52 53  1  0  0  0  0
 53 54  1  0  0  0  0
 54 55  1  0  0  0  0
 52 56  1  0  0  0  0
 53 56  1  0  0  0  0
 55 57  1  0  0  0  0
 51 58  1  0  0  0  0
 51 59  1  0  0  0  0
 58 59  1  0  0  0  0
 52 60  1  0  0  0  0
 56 60  1  0  0  0  0
 59 60  1  0  0  0  0
 58 61  1  0  0  0  0
 59 61  1  0  0  0  0
 60 62  1  0  0  0  0
 56 63  1  0  0  0  0
 60 63  1  0  0  0  0
 62 63  1  0  0  0  0
 56 64  1  0  0  0  0
 63 64  1  0  0  0  0
 57 65  1  0  0  0  0
 64 65  1  0  0  0  0
 12 66  1  0  0  0  0
 63 66  1  0  0  0  0
 64 66  1  0  0  0  0
 65 67  1  0  0  0  0
 61 68  1  0  0  0  0
 61 69  1  0  0  0  0
 68 69  1  0  0  0  0
 62 70  1  0  0  0  0
 69 70  1  0  0  0  0
 68 71  1  0  0  0  0
 69 71  1  0  0  0  0
 70 72  1  0  0  0  0
 62 73  1  0  0  0  0
 70 73  1  0  0  0  0
 72 73  1  0  0  0  0
 66 74  1  0  0  0  0
 73 74  1  0  0  0  0
 67 75  1  0  0  0  0
 74 75  1  0  0  0  0
 73 76  1  0  0  0  0
 74 76  1  0  0  0  0
 75 77  1  0  0  0  0
 76 77  1  0  0  0  0
 71 78  1  0  0  0  0
 71 79  1  0  0  0  0
 78 79  1  0  0  0  0
 72 80  1  0  0  0  0
 79 80  1  0  0  0  0
 78 81  1  0  0  0  0
 79 81  1  0  0  0  0
 80 82  1  0  0  0  0
 72 83  1  0  0  0  0
 80 83  1  0  0  0  0
 82 83  1  0  0  0  0
 76 84  1  0  0  0  0
 83 84  1  0  0  0  0
 76 85  1  0  0  0  0
 77 85  1  0  0  0  0
 84 85  1  0  0  0  0
 82 86  1  0  0  0  0
 83 86  1  0  0  0  0
 84 86  1  0  0  0  0
 84 87  1  0  0  0  0
 85 87  1  0  0  0  0
 86 87  1  0  0  0  0
 48 88  1  0  0  0  0
 48 89  1  0  0  0  0
 49 89  1  0  0  0  0
 50 90  1  0  0  0  0
 54 91  1  0  0  0  0
 55 92  1  0  0  0  0
 57 93  1  0  0  0  0
 58 94  1  0  0  0  0
 67 95  1  0  0  0  0
 68 96  1  0  0  0  0
 77 97  1  0  0  0  0
 78 98  1  0  0  0  0
 81 99  1  0  0  0  0
 82100  1  0  0  0  0
 86101  1  0  0  0  0
 87102  1  0  0  0  0
M  END
