 xtb: 6.7.1pre (5071a88)
          09022615183D

102138  0     0  0            999 V2000
   -0.2789   -5.8106   10.1718 C   0  0  0  0  0  0  0  0  0  0  0  0
    0.5070   -5.8124    9.0087 O   0  0  0  0  0  0  0  0  0  0  0  0
    0.3492   -4.7922    8.1187 C   0  0  0  0  0  0  0  0  0  0  0  0
   -0.5433   -3.7462    8.2534 C   0  0  0  0  0  0  0  0  0  0  0  0
   -0.6516   -2.7384    7.2819 C   0  0  0  0  0  0  0  0  0  0  0  0
   -1.5882   -1.6612    7.4760 C   0  0  0  0  0  0  0  0  0  0  0  0
   -1.8821   -0.7003    6.5742 C   0  0  0  0  0  0  0  0  0  0  0  0
   -2.8240    0.3679    6.8449 C   0  0  0  0  0  0  0  0  0  0  0  0
   -3.3842    0.5493    7.9161 O   0  0  0  0  0  0  0  0  0  0  0  0
   -2.9776    1.3464    5.6819 C   0  0  0  0  0  0  0  0  0  0  0  0
   -1.6262    1.9972    5.6474 C   0  0  0  0  0  0  0  0  0  0  0  0
   -0.7314    1.6827    4.6979 O   0  0  0  0  0  0  0  0  0  0  0  0
   -1.2572    2.8908    6.6412 C   0  0  0  0  0  0  0  0  0  0  0  0
   -0.0847    3.6207    6.6329 C   0  0  0  0  0  0  0  0  0  0  0  0
    0.3170    4.5855    7.5984 C   0  0  0  0  0  0  0  0  0  0  0  0
   -0.3417    4.7794    8.8204 C   0  0  0  0  0  0  0  0  0  0  0  0
    0.0976    5.7363    9.7107 C   0  0  0  0  0  0  0  0  0  0  0  0
    1.1910    6.5394    9.4259 C   0  0  0  0  0  0  0  0  0  0  0  0
    1.6399    7.4970   10.2910 O   0  0  0  0  0  0  0  0  0  0  0  0
    1.8698    6.3689    8.2030 C   0  0  0  0  0  0  0  0  0  0  0  0
    2.9298    7.2083    7.9939 O   0  0  0  0  0  0  0  0  0  0  0  0
    3.6062    7.1305    6.7682 C   0  0  0  0  0  0  0  0  0  0  0  0
    1.4353    5.4009    7.3238 C   0  0  0  0  0  0  0  0  0  0  0  0
    0.1806   -2.8092    6.1653 C   0  0  0  0  0  0  0  0  0  0  0  0
    1.0851   -3.8410    6.0262 C   0  0  0  0  0  0  0  0  0  0  0  0
    1.1835   -4.8393    6.9815 C   0  0  0  0  0  0  0  0  0  0  0  0
    2.0651   -5.8634    6.8586 O   0  0  0  0  0  0  0  0  0  0  0  0
    0.0184   -6.6980   10.7283 H   0  0  0  0  0  0  0  0  0  0  0  0
   -0.0929   -4.9216   10.7838 H   0  0  0  0  0  0  0  0  0  0  0  0
   -1.3472   -5.8725    9.9383 H   0  0  0  0  0  0  0  0  0  0  0  0
   -1.1846   -3.6874    9.1184 H   0  0  0  0  0  0  0  0  0  0  0  0
   -2.0924   -1.6158    8.4323 H   0  0  0  0  0  0  0  0  0  0  0  0
   -1.4324   -0.7096    5.5952 H   0  0  0  0  0  0  0  0  0  0  0  0
   -3.7627    2.0667    5.9094 H   0  0  0  0  0  0  0  0  0  0  0  0
   -3.2055    0.8291    4.7507 H   0  0  0  0  0  0  0  0  0  0  0  0
   -1.9757    3.0366    7.4327 H   0  0  0  0  0  0  0  0  0  0  0  0
    0.5739    3.4855    5.7852 H   0  0  0  0  0  0  0  0  0  0  0  0
   -1.1907    4.1691    9.0807 H   0  0  0  0  0  0  0  0  0  0  0  0
   -0.4164    5.8714   10.6542 H   0  0  0  0  0  0  0  0  0  0  0  0
    1.0814    7.4933   11.0774 H   0  0  0  0  0  0  0  0  0  0  0  0
    4.3747    7.9013    6.8070 H   0  0  0  0  0  0  0  0  0  0  0  0
    2.9371    7.3299    5.9235 H   0  0  0  0  0  0  0  0  0  0  0  0
    4.0829    6.1535    6.6285 H   0  0  0  0  0  0  0  0  0  0  0  0
    1.9453    5.2566    6.3838 H   0  0  0  0  0  0  0  0  0  0  0  0
    0.1381   -2.0496    5.4048 H   0  0  0  0  0  0  0  0  0  0  0  0
    1.7347   -3.8829    5.1635 H   0  0  0  0  0  0  0  0  0  0  0  0
    2.5614   -5.7597    6.0322 H   0  0  0  0  0  0  0  0  0  0  0  0
   -4.6882   -2.9538    0.4217 B   0  0  0  0  0  0  0  0  0  0  0  0
   -4.0506   -1.6094   -0.1941 B   0  0  0  0  0  0  0  0  0  0  0  0
   -3.1289   -0.6041   -1.1304 B   0  0  0  0  0  0  0  0  0  0  0  0
   -3.0995   -2.9935    0.3147 B   0  0  0  0  0  0  0  0  0  0  0  0
   -2.2269   -0.2518    0.0814 B   0  0  0  0  0  0  0  0  0  0  0  0
   -4.0423   -0.0247    0.4273 B   0  0  0  0  0  0  0  0  0  0  0  0
   -5.1164    1.1859    0.4764 B   0  0  0  0  0  0  0  0  0  0  0  0
   -4.4663    2.6425    0.2422 B   0  0  0  0  0  0  0  0  0  0  0  0
   -2.8748    0.1031    1.5783 B   0  0  0  0  0  0  0  0  0  0  0  0
   -3.6909    3.3938    1.4486 B   0  0  0  0  0  0  0  0  0  0  0  0
   -1.8773   -4.0939    0.2211 B   0  0  0  0  0  0  0  0  0  0  0  0
   -1.5784   -2.6629    0.9018 B   0  0  0  0  0  0  0  0  0  0  0  0
   -1.4947   -1.0882    1.2973 B   0  0  0  0  0  0  0  0  0  0  0  0
   -0.5388   -3.8808    1.1996 B   0  0  0  0  0  0  0  0  0  0  0  0
   -0.4791   -1.0313    2.6574 B   0  0  0  0  0  0  0  0  0  0  0  0
   -1.8123   -0.2295    2.7983 B   0  0  0  0  0  0  0  0  0  0  0  0
   -2.1948    1.3656    2.3651 B   0  0  0  0  0  0  0  0  0  0  0  0
   -2.2423    2.7413    1.5918 B   0  0  0  0  0  0  0  0  0  0  0  0
   -0.8684    1.2151    3.3989 B   0  0  0  0  0  0  0  0  0  0  0  0
   -0.8395    3.4277    0.9618 B   0  0  0  0  0  0  0  0  0  0  0  0
    0.7751   -4.8362    1.4328 B   0  0  0  0  0  0  0  0  0  0  0  0
    0.6360   -3.4419    2.2481 B   0  0  0  0  0  0  0  0  0  0  0  0
    0.9246   -1.9640    2.7673 B   0  0  0  0  0  0  0  0  0  0  0  0
    2.0376   -4.3881    2.3895 B   0  0  0  0  0  0  0  0  0  0  0  0
    2.3985   -1.2575    2.5807 B   0  0  0  0  0  0  0  0  0  0  0  0
    1.0825   -0.3516    2.6107 B   0  0  0  0  0  0  0  0  0  0  0  0
    0.6192    1.2941    2.5233 B   0  0  0  0  0  0  0  0  0  0  0  0
    0.2508    2.4139    1.4263 B   0  0  0  0  0  0  0  0  0  0  0  0
    2.0236    0.7553    1.8902 B   0  0  0  0  0  0  0  0  0  0  0  0
    0.8600    1.2600    0.4180 B   0  0  0  0  0  0  0  0  0  0  0  0
    3.1096   -4.9913    3.5273 B   0  0  0  0  0  0  0  0  0  0  0  0
    3.5422   -3.7564    2.5163 B   0  0  0  0  0  0  0  0  0  0  0  0
    3.7455   -2.2122    2.1631 B   0  0  0  0  0  0  0  0  0  0  0  0
    4.4306   -4.1435    3.7769 B   0  0  0  0  0  0  0  0  0  0  0  0
    5.0297   -1.4188    1.4027 B   0  0  0  0  0  0  0  0  0  0  0  0
    3.8960   -0.5894    2.2252 B   0  0  0  0  0  0  0  0  0  0  0  0
    3.6184    0.9764    1.4576 B   0  0  0  0  0  0  0  0  0  0  0  0
    2.4640    1.2363    0.2743 B   0  0  0  0  0  0  0  0  0  0  0  0
    5.1169    0.3030    1.5462 B   0  0  0  0  0  0  0  0  0  0  0  0
    3.9707    1.2249   -0.1051 B   0  0  0  0  0  0  0  0  0  0  0  0
   -5.5308   -3.4349    1.0770 H   0  0  0  0  0  0  0  0  0  0  0  0
   -5.1572   -2.2835   -0.5942 H   0  0  0  0  0  0  0  0  0  0  0  0
   -3.3009   -0.4007   -2.2746 H   0  0  0  0  0  0  0  0  0  0  0  0
   -6.2617    0.9964    0.6930 H   0  0  0  0  0  0  0  0  0  0  0  0
   -4.5094    3.1421   -0.8239 H   0  0  0  0  0  0  0  0  0  0  0  0
   -4.1916    4.2390    2.0912 H   0  0  0  0  0  0  0  0  0  0  0  0
   -1.9850   -5.0312   -0.4739 H   0  0  0  0  0  0  0  0  0  0  0  0
   -0.8350    4.3481    0.2312 H   0  0  0  0  0  0  0  0  0  0  0  0
    0.9189   -5.8980    0.9698 H   0  0  0  0  0  0  0  0  0  0  0  0
    0.1840    0.5592   -0.2469 H   0  0  0  0  0  0  0  0  0  0  0  0
    2.8701   -6.0649    3.9367 H   0  0  0  0  0  0  0  0  0  0  0  0
    5.3874   -3.9249    4.4064 H   0  0  0  0  0  0  0  0  0  0  0  0
    5.8929   -2.0017    0.8762 H   0  0  0  0  0  0  0  0  0  0  0  0
    6.1301    0.8589    1.7595 H   0  0  0  0  0  0  0  0  0  0  0  0
    4.7713    1.4033   -0.9327 H   0  0  0  0  0  0  0  0  0  0  0  0
  1  2  1  0  0  0  0
  2  3  1  0  0  0  0
  3  4  4  0  0  0  0
  4  5  4  0  0  0  0
  5  6  1  0  0  0  0
  6  7  2  0  0  0  0
  7  8  1  0  0  0  0
  8  9  2  0  0  0  0
  8 10  1  0  0  0  0
 10 11  1  0  0  0  0
 11 12  1  0  0  0  0
 11 13  4  0  0  0  0
 13 14  4  0  0  0  0
 14 15  4  0  0  0  0
 15 16  4  0  0  0  0
 16 17  4  0  0  0  0
 17 18  4  0  0  0  0
 18 19  1  0  0  0  0
 18 20  4  0  0  0  0
 20 21  1  0  0  0  0
 21 22  1  0  0  0  0
 15 23  4  0  0  0  0
 20 23  4  0  0  0  0
  5 24  4  0  0  0  0
 24 25  4  0  0  0  0
  3 26  4  0  0  0  0
 25 26  4  0  0  0  0
 26 27  1  0  0  0  0
  1 28  1  0  0  0  0
  1 29  1  0  0  0  0
  1 30  1  0  0  0  0
  4 31  1  0  0  0  0
  6 32  1  0  0  0  0
  7 33  1  0  0  0  0
 10 34  1  0  0  0  0
 10 35  1  0  0  0  0
 13 36  1  0  0  0  0
 14 37  1  0  0  0  0
 16 38  1  0  0  0  0
 17 39  1  0  0  0  0
 19 40  1  0  0  0  0
 22 41  1  0  0  0  0
 22 42  1  0  0  0  0
 22 43  1  0  0  0  0
 23 44  1  0  0  0  0
 24 45  1  0  0  0  0
 25 46  1  0  0  0  0
 27 47  1  0  0  0  0
 48 49  1  0  0  0  0
 49 50  1  0  0  0  0
 48 51  1  0  0  0  0
 49 51  1  0  0  0  0
 50 52  1  0  0  0  0
 49 53  1  0  0  0  0
 50 53  1  0  0  0  0
 52 53  1  0  0  0  0
 53 54  1  0  0  0  0
 54 55  1  0  0  0  0
 52 56  1  0  0  0  0
 53 56  1  0  0  0  0
 55 57  1  0  0  0  0
 51 58  1  0  0  0  0
 51 59  1  0  0  0  0
 58 59  1  0  0  0  0
 52 60  1  0  0  0  0
 56 60  1  0  0  0  0
 59 60  1  0  0  0  0
 58 61  1  0  0  0  0
 59 61  1  0  0  0  0
 60 62  1  0  0  0  0
 56 63  1  0  0  0  0
 60 63  1  0  0  0  0
 62 63  1  0  0  0  0
 56 64  1  0  0  0  0
 63 64  1  0  0  0  0
 57 65  1  0  0  0  0
 64 65  1  0  0  0  0
 12 66  1  0  0  0  0
 63 66  1  0  0  0  0
 64 66  1  0  0  0  0
 65 67  1  0  0  0  0
 61 68  1  0  0  0  0
 61 69  1  0  0  0  0
 68 69  1  0  0  0  0
 62 70  1  0  0  0  0
 69 70  1  0  0  0  0
 68 71  1  0  0  0  0
 69 71  1  0  0  0  0
 70 72  1  0  0  0  0
 62 73  1  0  0  0  0
 70 73  1  0  0  0  0
 72 73  1  0  0  0  0
 66 74  1  0  0  0  0
 73 74  1  0  0  0  0
 67 75  1  0  0  0  0
 74 75  1  0  0  0  0
 73 76  1  0  0  0  0
 74 76  1  0  0  0  0
 75 77  1  0  0  0  0
 76 77  1  0  0  0  0
 71 78  1  0  0  0  0
 71 79  1  0  0  0  0
 78 79  1  0  0  0  0
 72 80  1  0  0  0  0
 79 80  1  0  0  0  0
 78 81  1  0  0  0  0
 79 81  1  0  0  0  0
 80 82  1  0  0  0  0
 72 83  1  0  0  0  0
 80 83  1  0  0  0  0
 82 83  1  0  0  0  0
 76 84  1  0  0  0  0
 83 84  1  0  0  0  0
 76 85  1  0  0  0  0
 77 85  1  0  0  0  0
 84 85  1  0  0  0  0
 82 86  1  0  0  0  0
 83 86  1  0  0  0  0
 84 86  1  0  0  0  0
 84 87  1  0  0  0  0
 85 87  1  0  0  0  0
 86 87  1  0  0  0  0
 48 88  1  0  0  0  0
 48 89  1  0  0  0  0
 49 89  1  0  0  0  0
 50 90  1  0  0  0  0
 54 91  1  0  0  0  0
 55 92  1  0  0  0  0
 57 93  1  0  0  0  0
 58 94  1  0  0  0  0
 67 95  1  0  0  0  0
 68 96  1  0  0  0  0
 77 97  1  0  0  0  0
 78 98  1  0  0  0  0
 81 99  1  0  0  0  0
 82100  1  0  0  0  0
 86101  1  0  0  0  0
 87102  1  0  0  0  0
M  END
