 xtb: 6.7.1 (edcfbbe)
          09242615533D

 34 36  0     0  0            999 V2000
   -2.1561   -1.5736   -1.2633 C   0  0  0  0  0  0  0  0  0  0  0  0
   -1.0831   -0.8169   -0.4798 C   0  0  0  0  0  0  0  0  0  0  0  0
   -0.8340   -1.4987    0.8682 C   0  0  0  0  0  0  0  0  0  0  0  0
    0.2390   -0.7387    1.6451 C   0  0  0  0  0  0  0  0  0  0  0  0
    1.5395   -0.7247    0.8437 C   0  0  0  0  0  0  0  0  0  0  0  0
    1.3152   -0.0352   -0.5052 C   0  0  0  0  0  0  0  0  0  0  0  0
    2.6139   -0.0209   -1.3128 C   0  0  0  0  0  0  0  0  0  0  0  0
    0.2276   -0.7931   -1.2721 C   0  0  0  0  0  0  0  0  0  0  0  0
    0.8367    1.3973   -0.2537 C   0  0  0  0  0  0  0  0  0  0  0  0
   -0.4714    1.3951    0.5539 C   0  0  0  0  0  0  0  0  0  0  0  0
   -0.9823    2.7349    0.8225 N   0  0  0  0  0  0  0  0  0  0  0  0
   -0.2256    0.6942    1.8920 C   0  0  0  0  0  0  0  0  0  0  0  0
   -1.5360    0.6232   -0.2292 C   0  0  0  0  0  0  0  0  0  0  0  0
   -1.8433   -2.5994   -1.4470 H   0  0  0  0  0  0  0  0  0  0  0  0
   -2.3392   -1.0944   -2.2228 H   0  0  0  0  0  0  0  0  0  0  0  0
   -3.0907   -1.5943   -0.7071 H   0  0  0  0  0  0  0  0  0  0  0  0
   -1.7609   -1.5231    1.4452 H   0  0  0  0  0  0  0  0  0  0  0  0
   -0.5127   -2.5302    0.7057 H   0  0  0  0  0  0  0  0  0  0  0  0
    0.4111   -1.2342    2.6075 H   0  0  0  0  0  0  0  0  0  0  0  0
    2.3152   -0.1969    1.4038 H   0  0  0  0  0  0  0  0  0  0  0  0
    1.8848   -1.7482    0.6799 H   0  0  0  0  0  0  0  0  0  0  0  0
    2.9608   -1.0358   -1.4959 H   0  0  0  0  0  0  0  0  0  0  0  0
    3.3933    0.5152   -0.7750 H   0  0  0  0  0  0  0  0  0  0  0  0
    2.4624    0.4674   -2.2734 H   0  0  0  0  0  0  0  0  0  0  0  0
    0.5602   -1.8167   -1.4604 H   0  0  0  0  0  0  0  0  0  0  0  0
    0.0616   -0.3150   -2.2408 H   0  0  0  0  0  0  0  0  0  0  0  0
    0.6754    1.9060   -1.2091 H   0  0  0  0  0  0  0  0  0  0  0  0
    1.6040    1.9526    0.2943 H   0  0  0  0  0  0  0  0  0  0  0  0
   -1.1585    3.2252   -0.0482 H   0  0  0  0  0  0  0  0  0  0  0  0
   -0.3004    3.2725    1.3475 H   0  0  0  0  0  0  0  0  0  0  0  0
    0.5315    1.2418    2.4588 H   0  0  0  0  0  0  0  0  0  0  0  0
   -1.1494    0.7044    2.4720 H   0  0  0  0  0  0  0  0  0  0  0  0
   -1.7207    1.1249   -1.1826 H   0  0  0  0  0  0  0  0  0  0  0  0
   -2.4677    0.6355    0.3384 H   0  0  0  0  0  0  0  0  0  0  0  0
  1  2  1  0  0  0  0
  2  3  1  0  0  0  0
  3  4  1  0  0  0  0
  4  5  1  0  0  0  0
  5  6  1  0  0  0  0
  6  7  1  0  0  0  0
  2  8  1  0  0  0  0
  6  8  1  0  0  0  0
  6  9  1  0  0  0  0
  9 10  1  0  0  0  0
 10 11  1  0  0  0  0
  4 12  1  0  0  0  0
 10 12  1  0  0  0  0
  2 13  1  0  0  0  0
 10 13  1  0  0  0  0
  1 14  1  0  0  0  0
  1 15  1  0  0  0  0
  1 16  1  0  0  0  0
  3 17  1  0  0  0  0
  3 18  1  0  0  0  0
  4 19  1  0  0  0  0
  5 20  1  0  0  0  0
  5 21  1  0  0  0  0
  7 22  1  0  0  0  0
  7 23  1  0  0  0  0
  7 24  1  0  0  0  0
  8 25  1  0  0  0  0
  8 26  1  0  0  0  0
  9 27  1  0  0  0  0
  9 28  1  0  0  0  0
 11 29  1  0  0  0  0
 11 30  1  0  0  0  0
 12 31  1  0  0  0  0
 12 32  1  0  0  0  0
 13 33  1  0  0  0  0
 13 34  1  0  0  0  0
M  END
