 xtb: 6.7.1 (edcfbbe)
          09242620043D

 60110  0     0  0            999 V2000
   -6.1460    2.6140    1.5076 B   0  0  0  0  0  0  0  0  0  0  0  0
   -6.0381    0.9700    1.0278 B   0  0  0  0  0  0  0  0  0  0  0  0
   -4.7929    3.5986    1.0945 B   0  0  0  0  0  0  0  0  0  0  0  0
   -4.6494    1.9159    1.1155 B   0  0  0  0  0  0  0  0  0  0  0  0
   -4.5052    0.2226    1.0832 B   0  0  0  0  0  0  0  0  0  0  0  0
   -5.7660   -2.4088    0.7980 B   0  0  0  0  0  0  0  0  0  0  0  0
   -5.6039   -4.1016    1.0229 B   0  0  0  0  0  0  0  0  0  0  0  0
   -4.3710   -1.4425    0.9612 B   0  0  0  0  0  0  0  0  0  0  0  0
   -4.2443   -3.1232    0.7416 B   0  0  0  0  0  0  0  0  0  0  0  0
   -4.1204   -4.7842    0.4636 B   0  0  0  0  0  0  0  0  0  0  0  0
   -3.2552    2.8932    1.0540 B   0  0  0  0  0  0  0  0  0  0  0  0
   -3.1102    1.1837    1.0815 B   0  0  0  0  0  0  0  0  0  0  0  0
   -1.8535    3.8245    1.2567 B   0  0  0  0  0  0  0  0  0  0  0  0
   -1.7269    2.1584    1.0154 B   0  0  0  0  0  0  0  0  0  0  0  0
   -1.6002    0.4821    0.7817 B   0  0  0  0  0  0  0  0  0  0  0  0
   -2.8421   -2.1585    0.8219 B   0  0  0  0  0  0  0  0  0  0  0  0
   -2.7150   -3.8450    0.5338 B   0  0  0  0  0  0  0  0  0  0  0  0
   -1.4664   -1.1889    0.6495 B   0  0  0  0  0  0  0  0  0  0  0  0
   -1.3227   -2.8802    0.6274 B   0  0  0  0  0  0  0  0  0  0  0  0
   -1.1804   -4.5624    0.6104 B   0  0  0  0  0  0  0  0  0  0  0  0
   -0.3307    3.1233    1.0613 B   0  0  0  0  0  0  0  0  0  0  0  0
   -0.2125    1.4464    0.7049 B   0  0  0  0  0  0  0  0  0  0  0  0
    1.0597    4.0763    1.0305 B   0  0  0  0  0  0  0  0  0  0  0  0
    1.1867    2.4072    0.8169 B   0  0  0  0  0  0  0  0  0  0  0  0
    1.3143    0.7304    0.5922 B   0  0  0  0  0  0  0  0  0  0  0  0
    0.0544   -1.8969    0.4317 B   0  0  0  0  0  0  0  0  0  0  0  0
    0.2080   -3.6067    0.5245 B   0  0  0  0  0  0  0  0  0  0  0  0
    1.4473   -0.9397    0.4513 B   0  0  0  0  0  0  0  0  0  0  0  0
    1.5875   -2.6287    0.3859 B   0  0  0  0  0  0  0  0  0  0  0  0
    1.7298   -4.3105    0.3483 B   0  0  0  0  0  0  0  0  0  0  0  0
    2.5589    3.3921    0.6285 B   0  0  0  0  0  0  0  0  0  0  0  0
    2.7130    1.6816    0.6802 B   0  0  0  0  0  0  0  0  0  0  0  0
    3.9434    4.3474    0.4672 B   0  0  0  0  0  0  0  0  0  0  0  0
    4.0912    2.6651    0.4912 B   0  0  0  0  0  0  0  0  0  0  0  0
    4.2332    0.9710    0.4632 B   0  0  0  0  0  0  0  0  0  0  0  0
    2.9794   -1.6596    0.4014 B   0  0  0  0  0  0  0  0  0  0  0  0
    3.0976   -3.3438    0.0872 B   0  0  0  0  0  0  0  0  0  0  0  0
    4.3661   -0.6930    0.3266 B   0  0  0  0  0  0  0  0  0  0  0  0
    4.4949   -2.3721    0.0946 B   0  0  0  0  0  0  0  0  0  0  0  0
    4.6147   -4.0319   -0.1938 B   0  0  0  0  0  0  0  0  0  0  0  0
    5.4913    3.6106    0.6839 B   0  0  0  0  0  0  0  0  0  0  0  0
    5.5970    1.9674    0.2045 B   0  0  0  0  0  0  0  0  0  0  0  0
    5.8676   -1.4089   -0.0609 B   0  0  0  0  0  0  0  0  0  0  0  0
    6.0290   -3.1027    0.1577 B   0  0  0  0  0  0  0  0  0  0  0  0
   -7.0923    3.0729    2.0285 H   0  0  0  0  0  0  0  0  0  0  0  0
   -6.9820    0.4371    0.5873 H   0  0  0  0  0  0  0  0  0  0  0  0
   -4.9728    4.7204    0.7939 H   0  0  0  0  0  0  0  0  0  0  0  0
   -6.7931   -1.9741    0.4440 H   0  0  0  0  0  0  0  0  0  0  0  0
   -6.4520   -4.7810    1.4660 H   0  0  0  0  0  0  0  0  0  0  0  0
   -4.1298   -5.8625   -0.0038 H   0  0  0  0  0  0  0  0  0  0  0  0
   -1.9471    4.9582    1.5567 H   0  0  0  0  0  0  0  0  0  0  0  0
   -1.0889   -5.7264    0.7538 H   0  0  0  0  0  0  0  0  0  0  0  0
    1.0020    5.2152    1.3198 H   0  0  0  0  0  0  0  0  0  0  0  0
    1.8527   -5.4779    0.4269 H   0  0  0  0  0  0  0  0  0  0  0  0
    3.8916    5.4797    0.1564 H   0  0  0  0  0  0  0  0  0  0  0  0
    4.7413   -5.0963   -0.6756 H   0  0  0  0  0  0  0  0  0  0  0  0
    6.4044    4.2332    1.0789 H   0  0  0  0  0  0  0  0  0  0  0  0
    6.5443    1.5953   -0.3730 H   0  0  0  0  0  0  0  0  0  0  0  0
    6.7396   -0.8072   -0.5576 H   0  0  0  0  0  0  0  0  0  0  0  0
    7.0335   -3.6260    0.4653 H   0  0  0  0  0  0  0  0  0  0  0  0
  1  2  1  0  0  0  0
  1  3  1  0  0  0  0
  1  4  1  0  0  0  0
  2  4  1  0  0  0  0
  3  4  1  0  0  0  0
  2  5  1  0  0  0  0
  4  5  1  0  0  0  0
  6  7  1  0  0  0  0
  5  8  1  0  0  0  0
  6  8  1  0  0  0  0
  6  9  1  0  0  0  0
  7  9  1  0  0  0  0
  8  9  1  0  0  0  0
  7 10  1  0  0  0  0
  9 10  1  0  0  0  0
  3 11  1  0  0  0  0
  4 11  1  0  0  0  0
  4 12  1  0  0  0  0
  5 12  1  0  0  0  0
 11 12  1  0  0  0  0
 11 13  1  0  0  0  0
 11 14  1  0  0  0  0
 12 14  1  0  0  0  0
 13 14  1  0  0  0  0
 12 15  1  0  0  0  0
 14 15  1  0  0  0  0
  8 16  1  0  0  0  0
  9 16  1  0  0  0  0
  9 17  1  0  0  0  0
 10 17  1  0  0  0  0
 16 17  1  0  0  0  0
 15 18  1  0  0  0  0
 16 18  1  0  0  0  0
 16 19  1  0  0  0  0
 17 19  1  0  0  0  0
 18 19  1  0  0  0  0
 17 20  1  0  0  0  0
 19 20  1  0  0  0  0
 13 21  1  0  0  0  0
 14 21  1  0  0  0  0
 14 22  1  0  0  0  0
 15 22  1  0  0  0  0
 21 22  1  0  0  0  0
 21 23  1  0  0  0  0
 21 24  1  0  0  0  0
 22 24  1  0  0  0  0
 23 24  1  0  0  0  0
 22 25  1  0  0  0  0
 24 25  1  0  0  0  0
 18 26  1  0  0  0  0
 19 26  1  0  0  0  0
 19 27  1  0  0  0  0
 20 27  1  0  0  0  0
 26 27  1  0  0  0  0
 25 28  1  0  0  0  0
 26 28  1  0  0  0  0
 26 29  1  0  0  0  0
 27 29  1  0  0  0  0
 28 29  1  0  0  0  0
 27 30  1  0  0  0  0
 29 30  1  0  0  0  0
 23 31  1  0  0  0  0
 24 31  1  0  0  0  0
 24 32  1  0  0  0  0
 25 32  1  0  0  0  0
 31 32  1  0  0  0  0
 31 33  1  0  0  0  0
 31 34  1  0  0  0  0
 32 34  1  0  0  0  0
 33 34  1  0  0  0  0
 32 35  1  0  0  0  0
 34 35  1  0  0  0  0
 28 36  1  0  0  0  0
 29 36  1  0  0  0  0
 29 37  1  0  0  0  0
 30 37  1  0  0  0  0
 36 37  1  0  0  0  0
 35 38  1  0  0  0  0
 36 38  1  0  0  0  0
 36 39  1  0  0  0  0
 37 39  1  0  0  0  0
 38 39  1  0  0  0  0
 37 40  1  0  0  0  0
 39 40  1  0  0  0  0
 33 41  1  0  0  0  0
 34 41  1  0  0  0  0
 34 42  1  0  0  0  0
 35 42  1  0  0  0  0
 41 42  1  0  0  0  0
 38 43  1  0  0  0  0
 39 43  1  0  0  0  0
 39 44  1  0  0  0  0
 40 44  1  0  0  0  0
 43 44  1  0  0  0  0
  1 45  1  0  0  0  0
  2 46  1  0  0  0  0
  3 47  1  0  0  0  0
  6 48  1  0  0  0  0
  7 49  1  0  0  0  0
 10 50  1  0  0  0  0
 13 51  1  0  0  0  0
 20 52  1  0  0  0  0
 23 53  1  0  0  0  0
 30 54  1  0  0  0  0
 33 55  1  0  0  0  0
 40 56  1  0  0  0  0
 41 57  1  0  0  0  0
 42 58  1  0  0  0  0
 43 59  1  0  0  0  0
 44 60  1  0  0  0  0
M  END
