 xtb: 6.7.1pre (5071a88)
          08312622093D

 90145  0     0  0            999 V2000
   -2.2920   -1.3715   10.0668 O   0  0  0  0  0  0  0  0  0  0  0  0
   -1.4726   -0.9062    9.2365 C   0  0  0  0  0  0  0  0  0  0  0  0
   -1.1455    0.4699    9.1115 C   0  0  0  0  0  0  0  0  0  0  0  0
   -0.2389    0.9306    8.1907 C   0  0  0  0  0  0  0  0  0  0  0  0
    0.1465    2.3148    8.0260 C   0  0  0  0  0  0  0  0  0  0  0  0
    1.3264    2.6382    7.3302 C   0  0  0  0  0  0  0  0  0  0  0  0
    1.7226    3.9475    7.1720 C   0  0  0  0  0  0  0  0  0  0  0  0
    0.9521    4.9824    7.6923 C   0  0  0  0  0  0  0  0  0  0  0  0
   -0.2232    4.6836    8.3705 C   0  0  0  0  0  0  0  0  0  0  0  0
   -0.6234    3.3764    8.5379 C   0  0  0  0  0  0  0  0  0  0  0  0
    0.4116    0.0795    7.3346 O   0  0  0  0  0  0  0  0  0  0  0  0
    0.1440   -1.2495    7.3923 C   0  0  0  0  0  0  0  0  0  0  0  0
    0.8071   -2.0811    6.4965 C   0  0  0  0  0  0  0  0  0  0  0  0
    0.5724   -3.4522    6.5097 C   0  0  0  0  0  0  0  0  0  0  0  0
    1.1983   -4.2825    5.6321 O   0  0  0  0  0  0  0  0  0  0  0  0
   -0.3241   -4.0021    7.4262 C   0  0  0  0  0  0  0  0  0  0  0  0
   -0.5548   -5.3482    7.4565 O   0  0  0  0  0  0  0  0  0  0  0  0
   -0.9955   -3.1654    8.3214 C   0  0  0  0  0  0  0  0  0  0  0  0
   -1.8609   -3.7266    9.1907 O   0  0  0  0  0  0  0  0  0  0  0  0
   -0.7670   -1.7828    8.3033 C   0  0  0  0  0  0  0  0  0  0  0  0
   -1.6193    1.1538    9.7840 H   0  0  0  0  0  0  0  0  0  0  0  0
    1.9338    1.8381    6.9392 H   0  0  0  0  0  0  0  0  0  0  0  0
    2.6431    4.1723    6.6527 H   0  0  0  0  0  0  0  0  0  0  0  0
    1.2633    6.0099    7.5707 H   0  0  0  0  0  0  0  0  0  0  0  0
   -0.8321    5.4859    8.7673 H   0  0  0  0  0  0  0  0  0  0  0  0
   -1.5475    3.1720    9.0527 H   0  0  0  0  0  0  0  0  0  0  0  0
    1.5104   -1.6491    5.8026 H   0  0  0  0  0  0  0  0  0  0  0  0
    1.7726   -3.7679    5.0538 H   0  0  0  0  0  0  0  0  0  0  0  0
   -1.1914   -5.4949    8.1710 H   0  0  0  0  0  0  0  0  0  0  0  0
   -2.2192   -2.9377    9.7287 H   0  0  0  0  0  0  0  0  0  0  0  0
   -6.1922   -3.0043   -0.3987 B   0  0  0  0  0  0  0  0  0  0  0  0
   -3.7652   -3.4895    0.9705 B   0  0  0  0  0  0  0  0  0  0  0  0
   -1.0174   -4.1516    2.2875 B   0  0  0  0  0  0  0  0  0  0  0  0
    1.7482   -4.1608    1.8022 B   0  0  0  0  0  0  0  0  0  0  0  0
    3.0209   -3.6194    1.0472 B   0  0  0  0  0  0  0  0  0  0  0  0
    5.8352   -3.8655   -0.2667 B   0  0  0  0  0  0  0  0  0  0  0  0
   -4.6263   -2.4069   -0.3470 B   0  0  0  0  0  0  0  0  0  0  0  0
   -2.5657   -2.2324    1.0386 B   0  0  0  0  0  0  0  0  0  0  0  0
   -1.2289   -2.3877    2.0465 B   0  0  0  0  0  0  0  0  0  0  0  0
    0.3257   -3.1211    1.6390 B   0  0  0  0  0  0  0  0  0  0  0  0
    3.1570   -2.0680    0.4319 B   0  0  0  0  0  0  0  0  0  0  0  0
    5.1624   -2.5748   -0.9479 B   0  0  0  0  0  0  0  0  0  0  0  0
   -4.2508   -1.0947   -1.2371 B   0  0  0  0  0  0  0  0  0  0  0  0
   -3.1179   -1.3027   -0.0700 B   0  0  0  0  0  0  0  0  0  0  0  0
   -0.8416   -0.8789    2.3823 B   0  0  0  0  0  0  0  0  0  0  0  0
    0.4486   -1.4915    1.2259 B   0  0  0  0  0  0  0  0  0  0  0  0
    4.2427   -1.2366   -0.3151 B   0  0  0  0  0  0  0  0  0  0  0  0
    6.7553   -2.5242   -0.8003 B   0  0  0  0  0  0  0  0  0  0  0  0
   -4.7993   -0.6674   -2.7595 B   0  0  0  0  0  0  0  0  0  0  0  0
   -3.1352    0.1436   -0.7193 B   0  0  0  0  0  0  0  0  0  0  0  0
   -1.0554    0.6584    2.3760 B   0  0  0  0  0  0  0  0  0  0  0  0
   -0.0009   -0.0131    1.1706 B   0  0  0  0  0  0  0  0  0  0  0  0
    4.9078    0.2541   -0.3841 B   0  0  0  0  0  0  0  0  0  0  0  0
    5.7874   -1.0796   -1.0294 B   0  0  0  0  0  0  0  0  0  0  0  0
   -5.5838    0.8253   -2.8591 B   0  0  0  0  0  0  0  0  0  0  0  0
   -2.8355    1.6068   -0.4473 B   0  0  0  0  0  0  0  0  0  0  0  0
   -1.3187    2.1648    2.1679 B   0  0  0  0  0  0  0  0  0  0  0  0
    0.1677    1.5599    1.2946 B   0  0  0  0  0  0  0  0  0  0  0  0
    4.2721    1.6463    0.2151 B   0  0  0  0  0  0  0  0  0  0  0  0
    6.2312    0.4160   -1.5524 B   0  0  0  0  0  0  0  0  0  0  0  0
   -5.6312    1.7473   -1.4466 B   0  0  0  0  0  0  0  0  0  0  0  0
   -3.3163    2.9689    0.0187 B   0  0  0  0  0  0  0  0  0  0  0  0
   -1.7499    3.6444    1.8334 B   0  0  0  0  0  0  0  0  0  0  0  0
   -0.0887    3.1850    1.4595 B   0  0  0  0  0  0  0  0  0  0  0  0
    2.9577    2.2505    0.8613 B   0  0  0  0  0  0  0  0  0  0  0  0
    5.7574    1.6983   -0.6698 B   0  0  0  0  0  0  0  0  0  0  0  0
   -6.5619    2.8468   -0.9333 B   0  0  0  0  0  0  0  0  0  0  0  0
   -4.4821    3.9856    0.5635 B   0  0  0  0  0  0  0  0  0  0  0  0
   -1.7914    5.2320    1.3256 B   0  0  0  0  0  0  0  0  0  0  0  0
    1.1559    4.3963    1.4256 B   0  0  0  0  0  0  0  0  0  0  0  0
    2.5798    3.8986    1.0175 B   0  0  0  0  0  0  0  0  0  0  0  0
    5.3404    3.0304   -0.0543 B   0  0  0  0  0  0  0  0  0  0  0  0
   -5.1741   -3.7546    0.4094 B   0  0  0  0  0  0  0  0  0  0  0  0
   -2.4323   -3.6574    1.7953 B   0  0  0  0  0  0  0  0  0  0  0  0
    0.4135   -4.6786    2.3165 B   0  0  0  0  0  0  0  0  0  0  0  0
    1.7658   -2.3661    1.1580 B   0  0  0  0  0  0  0  0  0  0  0  0
    4.3259   -3.4445    0.2236 B   0  0  0  0  0  0  0  0  0  0  0  0
   -5.0569    2.8782   -0.3406 B   0  0  0  0  0  0  0  0  0  0  0  0
   -3.0715    4.4256    1.0090 B   0  0  0  0  0  0  0  0  0  0  0  0
   -0.3031    4.9124    1.4925 B   0  0  0  0  0  0  0  0  0  0  0  0
    1.4531    2.5492    1.2100 B   0  0  0  0  0  0  0  0  0  0  0  0
    4.0546    3.5611    0.5858 B   0  0  0  0  0  0  0  0  0  0  0  0
   -4.4999    0.5569   -1.6995 B   0  0  0  0  0  0  0  0  0  0  0  0
   -7.1874   -2.6831   -0.9277 H   0  0  0  0  0  0  0  0  0  0  0  0
   -4.7089   -1.3733   -3.6970 H   0  0  0  0  0  0  0  0  0  0  0  0
   -6.1104    1.2024   -3.8388 H   0  0  0  0  0  0  0  0  0  0  0  0
   -7.5289    3.4903   -0.8014 H   0  0  0  0  0  0  0  0  0  0  0  0
    6.2463   -4.9655   -0.3005 H   0  0  0  0  0  0  0  0  0  0  0  0
    7.9062   -2.5294   -1.0228 H   0  0  0  0  0  0  0  0  0  0  0  0
    6.9140    0.5501   -2.5067 H   0  0  0  0  0  0  0  0  0  0  0  0
  1  2  2  0  0  0  0
  2  3  4  0  0  0  0
  3  4  4  0  0  0  0
  4  5  1  0  0  0  0
  5  6  4  0  0  0  0
  6  7  4  0  0  0  0
  7  8  4  0  0  0  0
  8  9  4  0  0  0  0
  5 10  4  0  0  0  0
  9 10  4  0  0  0  0
  4 11  1  0  0  0  0
 11 12  1  0  0  0  0
 12 13  4  0  0  0  0
 13 14  4  0  0  0  0
 14 15  1  0  0  0  0
 14 16  4  0  0  0  0
 16 17  1  0  0  0  0
 16 18  4  0  0  0  0
 18 19  1  0  0  0  0
  2 20  1  0  0  0  0
 12 20  4  0  0  0  0
 18 20  4  0  0  0  0
  3 21  1  0  0  0  0
  6 22  1  0  0  0  0
  7 23  1  0  0  0  0
  8 24  1  0  0  0  0
  9 25  1  0  0  0  0
 10 26  1  0  0  0  0
 13 27  1  0  0  0  0
 15 28  1  0  0  0  0
 17 29  1  0  0  0  0
 19 30  1  0  0  0  0
 34 35  1  0  0  0  0
 31 37  1  0  0  0  0
 32 37  1  0  0  0  0
 32 38  1  0  0  0  0
 33 39  1  0  0  0  0
 38 39  1  0  0  0  0
 33 40  1  0  0  0  0
 34 40  1  0  0  0  0
 39 40  1  0  0  0  0
 35 41  1  0  0  0  0
 36 42  1  0  0  0  0
 37 43  1  0  0  0  0
 37 44  1  0  0  0  0
 38 44  1  0  0  0  0
 43 44  1  0  0  0  0
 39 45  1  0  0  0  0
 40 46  1  0  0  0  0
 45 46  1  0  0  0  0
 41 47  1  0  0  0  0
 42 47  1  0  0  0  0
 36 48  1  0  0  0  0
 42 48  1  0  0  0  0
 43 49  1  0  0  0  0
 43 50  1  0  0  0  0
 44 50  1  0  0  0  0
 45 51  1  0  0  0  0
 45 52  1  0  0  0  0
 46 52  1  0  0  0  0
 51 52  1  0  0  0  0
 47 53  1  0  0  0  0
 42 54  1  0  0  0  0
 47 54  1  0  0  0  0
 48 54  1  0  0  0  0
 53 54  1  0  0  0  0
 49 55  1  0  0  0  0
 50 56  1  0  0  0  0
 51 57  1  0  0  0  0
 51 58  1  0  0  0  0
 52 58  1  0  0  0  0
 57 58  1  0  0  0  0
 53 59  1  0  0  0  0
 53 60  1  0  0  0  0
 54 60  1  0  0  0  0
 55 61  1  0  0  0  0
 56 62  2  0  0  0  0
 57 63  1  0  0  0  0
 57 64  1  0  0  0  0
 58 64  1  0  0  0  0
 63 64  1  0  0  0  0
 59 65  1  0  0  0  0
 53 66  1  0  0  0  0
 59 66  1  0  0  0  0
 60 66  1  0  0  0  0
 61 67  1  0  0  0  0
 62 68  1  0  0  0  0
 63 69  1  0  0  0  0
 64 70  1  0  0  0  0
 65 71  1  0  0  0  0
 70 71  1  0  0  0  0
 59 72  1  0  0  0  0
 66 72  1  0  0  0  0
 31 73  2  0  0  0  0
 32 73  1  0  0  0  0
 37 73  1  0  0  0  0
 32 74  1  0  0  0  0
 33 74  1  0  0  0  0
 38 74  1  0  0  0  0
 39 74  1  0  0  0  0
 33 75  1  0  0  0  0
 34 75  1  0  0  0  0
 40 75  1  0  0  0  0
 34 76  1  0  0  0  0
 35 76  1  0  0  0  0
 40 76  1  0  0  0  0
 41 76  1  0  0  0  0
 46 76  1  0  0  0  0
 35 77  1  0  0  0  0
 36 77  1  0  0  0  0
 41 77  1  0  0  0  0
 42 77  1  0  0  0  0
 61 78  1  0  0  0  0
 62 78  1  0  0  0  0
 67 78  1  0  0  0  0
 68 78  1  0  0  0  0
 62 79  1  0  0  0  0
 63 79  1  0  0  0  0
 68 79  1  0  0  0  0
 69 79  1  0  0  0  0
 63 80  1  0  0  0  0
 64 80  1  0  0  0  0
 69 80  1  0  0  0  0
 70 80  1  0  0  0  0
 58 81  1  0  0  0  0
 64 81  1  0  0  0  0
 65 81  1  0  0  0  0
 70 81  1  0  0  0  0
 71 81  1  0  0  0  0
 59 82  1  0  0  0  0
 65 82  1  0  0  0  0
 71 82  1  0  0  0  0
 72 82  1  0  0  0  0
 43 83  1  0  0  0  0
 49 83  1  0  0  0  0
 50 83  1  0  0  0  0
 55 83  1  0  0  0  0
 61 83  1  0  0  0  0
 31 84  1  0  0  0  0
 49 85  1  0  0  0  0
 55 86  1  0  0  0  0
 67 87  1  0  0  0  0
 36 88  1  0  0  0  0
 48 89  1  0  0  0  0
 60 90  1  0  0  0  0
M  END
