 xtb: 6.7.1pre (5071a88)
          09012620393D

 85124  0     0  0            999 V2000
   -2.0505   -2.1380    9.8164 O   0  0  0  0  0  0  0  0  0  0  0  0
   -1.3226   -1.3453    9.1844 C   0  0  0  0  0  0  0  0  0  0  0  0
   -1.0979    0.0139    9.5750 C   0  0  0  0  0  0  0  0  0  0  0  0
   -0.3039    0.8603    8.8507 C   0  0  0  0  0  0  0  0  0  0  0  0
   -0.0110    2.2430    9.2069 C   0  0  0  0  0  0  0  0  0  0  0  0
    0.8734    2.9903    8.4132 C   0  0  0  0  0  0  0  0  0  0  0  0
    1.1871    4.2929    8.7425 C   0  0  0  0  0  0  0  0  0  0  0  0
    0.6302    4.8875    9.8672 C   0  0  0  0  0  0  0  0  0  0  0  0
   -0.2502    4.1621   10.6590 C   0  0  0  0  0  0  0  0  0  0  0  0
   -0.5690    2.8587   10.3362 C   0  0  0  0  0  0  0  0  0  0  0  0
    0.3082    0.4605    7.7046 O   0  0  0  0  0  0  0  0  0  0  0  0
    0.1860   -0.8255    7.2913 C   0  0  0  0  0  0  0  0  0  0  0  0
    0.8861   -1.2142    6.1585 C   0  0  0  0  0  0  0  0  0  0  0  0
    0.8133   -2.5263    5.6966 C   0  0  0  0  0  0  0  0  0  0  0  0
    1.5214   -2.9387    4.6214 O   0  0  0  0  0  0  0  0  0  0  0  0
    0.0054   -3.4587    6.3618 C   0  0  0  0  0  0  0  0  0  0  0  0
   -0.0917   -4.7382    5.9071 O   0  0  0  0  0  0  0  0  0  0  0  0
   -0.7031   -3.0663    7.4990 C   0  0  0  0  0  0  0  0  0  0  0  0
   -1.4761   -3.9819    8.1205 O   0  0  0  0  0  0  0  0  0  0  0  0
   -0.6120   -1.7483    7.9787 C   0  0  0  0  0  0  0  0  0  0  0  0
   -1.5753    0.3426   10.4822 H   0  0  0  0  0  0  0  0  0  0  0  0
    1.3126    2.5345    7.5380 H   0  0  0  0  0  0  0  0  0  0  0  0
    1.8729    4.8521    8.1204 H   0  0  0  0  0  0  0  0  0  0  0  0
    0.8786    5.9062   10.1266 H   0  0  0  0  0  0  0  0  0  0  0  0
   -0.6877    4.6183   11.5370 H   0  0  0  0  0  0  0  0  0  0  0  0
   -1.2559    2.3152   10.9660 H   0  0  0  0  0  0  0  0  0  0  0  0
    1.4994   -0.4926    5.6401 H   0  0  0  0  0  0  0  0  0  0  0  0
    1.8703   -2.1749    4.1256 H   0  0  0  0  0  0  0  0  0  0  0  0
   -0.6818   -5.2077    6.5184 H   0  0  0  0  0  0  0  0  0  0  0  0
   -1.8726   -3.4987    8.9101 H   0  0  0  0  0  0  0  0  0  0  0  0
   -4.5867   -2.6909   -0.4024 B   0  0  0  0  0  0  0  0  0  0  0  0
   -4.1165   -1.2611   -0.9732 B   0  0  0  0  0  0  0  0  0  0  0  0
   -3.8039    0.1000   -1.9070 B   0  0  0  0  0  0  0  0  0  0  0  0
   -3.2152   -2.6436   -1.2060 B   0  0  0  0  0  0  0  0  0  0  0  0
   -2.3853    0.2795   -1.2939 B   0  0  0  0  0  0  0  0  0  0  0  0
   -3.7313    0.2214   -0.1209 B   0  0  0  0  0  0  0  0  0  0  0  0
   -4.6551    1.2371    0.7420 B   0  0  0  0  0  0  0  0  0  0  0  0
   -4.1000    2.7549    0.8540 B   0  0  0  0  0  0  0  0  0  0  0  0
   -2.1697    0.1261    0.3525 B   0  0  0  0  0  0  0  0  0  0  0  0
   -2.8827    2.9963    1.8886 B   0  0  0  0  0  0  0  0  0  0  0  0
   -2.0905   -3.8640   -1.4865 B   0  0  0  0  0  0  0  0  0  0  0  0
   -1.6143   -2.2923   -1.3458 B   0  0  0  0  0  0  0  0  0  0  0  0
   -1.1615   -0.7521   -0.8955 B   0  0  0  0  0  0  0  0  0  0  0  0
   -0.6115   -3.4954   -0.8972 B   0  0  0  0  0  0  0  0  0  0  0  0
    0.3970   -0.4280   -0.5176 B   0  0  0  0  0  0  0  0  0  0  0  0
   -0.7732   -0.6848    0.8100 B   0  0  0  0  0  0  0  0  0  0  0  0
   -1.1625    0.9456    1.3977 B   0  0  0  0  0  0  0  0  0  0  0  0
   -1.4612    2.5006    1.3680 B   0  0  0  0  0  0  0  0  0  0  0  0
    0.2865    0.2385    1.6534 B   0  0  0  0  0  0  0  0  0  0  0  0
   -0.0260    3.3421    1.0129 B   0  0  0  0  0  0  0  0  0  0  0  0
    0.0207   -3.9171    0.6256 B   0  0  0  0  0  0  0  0  0  0  0  0
    0.8856   -3.1063   -0.4797 B   0  0  0  0  0  0  0  0  0  0  0  0
    1.7900   -1.8186   -0.3882 B   0  0  0  0  0  0  0  0  0  0  0  0
    0.9556   -2.6797    1.1634 B   0  0  0  0  0  0  0  0  0  0  0  0
    3.1952   -1.0529   -0.3376 B   0  0  0  0  0  0  0  0  0  0  0  0
    1.8729   -0.1065   -0.7271 B   0  0  0  0  0  0  0  0  0  0  0  0
    1.5450    0.9931    0.7166 B   0  0  0  0  0  0  0  0  0  0  0  0
    1.1161    2.5376    0.2538 B   0  0  0  0  0  0  0  0  0  0  0  0
    3.0563    0.8061   -0.1408 B   0  0  0  0  0  0  0  0  0  0  0  0
    2.0439    2.6227   -1.0827 B   0  0  0  0  0  0  0  0  0  0  0  0
    0.0443   -1.4993    2.0446 B   0  0  0  0  0  0  0  0  0  0  0  0
    1.8359   -1.6938    2.0148 B   0  0  0  0  0  0  0  0  0  0  0  0
    3.1729   -0.8607    2.1343 B   0  0  0  0  0  0  0  0  0  0  0  0
    1.7897    0.1099    2.3216 B   0  0  0  0  0  0  0  0  0  0  0  0
    4.6619   -0.3728    2.1903 B   0  0  0  0  0  0  0  0  0  0  0  0
    4.4198   -0.4797    0.4613 B   0  0  0  0  0  0  0  0  0  0  0  0
    4.6154    1.4059    0.2511 B   0  0  0  0  0  0  0  0  0  0  0  0
    3.5558    2.4123   -0.5380 B   0  0  0  0  0  0  0  0  0  0  0  0
    5.7261    0.3316    0.8299 B   0  0  0  0  0  0  0  0  0  0  0  0
    4.9325    2.9280    0.0262 B   0  0  0  0  0  0  0  0  0  0  0  0
   -5.1048   -3.3671    0.3913 H   0  0  0  0  0  0  0  0  0  0  0  0
   -5.3722   -1.7626   -0.8176 H   0  0  0  0  0  0  0  0  0  0  0  0
   -4.5341    0.4831   -2.7422 H   0  0  0  0  0  0  0  0  0  0  0  0
   -5.6295    0.8710    1.3082 H   0  0  0  0  0  0  0  0  0  0  0  0
   -4.4935    3.6237    0.1407 H   0  0  0  0  0  0  0  0  0  0  0  0
   -3.1186    3.4174    2.9673 H   0  0  0  0  0  0  0  0  0  0  0  0
   -2.3806   -4.8734   -2.0100 H   0  0  0  0  0  0  0  0  0  0  0  0
    0.0778    4.3719    1.5629 H   0  0  0  0  0  0  0  0  0  0  0  0
   -0.4967   -4.7777    1.2393 H   0  0  0  0  0  0  0  0  0  0  0  0
    1.7311    2.6337   -2.2232 H   0  0  0  0  0  0  0  0  0  0  0  0
   -0.5582   -1.7657    3.0468 H   0  0  0  0  0  0  0  0  0  0  0  0
    1.8693    0.6793    3.3603 H   0  0  0  0  0  0  0  0  0  0  0  0
    5.3943   -0.1098    3.0654 H   0  0  0  0  0  0  0  0  0  0  0  0
    6.8943    0.3672    0.9122 H   0  0  0  0  0  0  0  0  0  0  0  0
    5.7031    3.7911    0.1780 H   0  0  0  0  0  0  0  0  0  0  0  0
  1  2  2  0  0  0  0
  2  3  1  0  0  0  0
  3  4  2  0  0  0  0
  4  5  1  0  0  0  0
  5  6  4  0  0  0  0
  6  7  4  0  0  0  0
  7  8  4  0  0  0  0
  8  9  4  0  0  0  0
  5 10  4  0  0  0  0
  9 10  4  0  0  0  0
  4 11  1  0  0  0  0
 11 12  1  0  0  0  0
 12 13  4  0  0  0  0
 13 14  4  0  0  0  0
 14 15  1  0  0  0  0
 14 16  4  0  0  0  0
 16 17  1  0  0  0  0
 16 18  4  0  0  0  0
 18 19  1  0  0  0  0
  2 20  1  0  0  0  0
 12 20  4  0  0  0  0
 18 20  4  0  0  0  0
  3 21  1  0  0  0  0
  6 22  1  0  0  0  0
  7 23  1  0  0  0  0
  8 24  1  0  0  0  0
  9 25  1  0  0  0  0
 10 26  1  0  0  0  0
 13 27  1  0  0  0  0
 15 28  1  0  0  0  0
 17 29  1  0  0  0  0
 19 30  1  0  0  0  0
 31 32  1  0  0  0  0
 32 33  1  0  0  0  0
 31 34  1  0  0  0  0
 32 34  1  0  0  0  0
 33 35  1  0  0  0  0
 32 36  1  0  0  0  0
 33 36  1  0  0  0  0
 35 36  1  0  0  0  0
 36 37  1  0  0  0  0
 37 38  1  0  0  0  0
 35 39  1  0  0  0  0
 36 39  1  0  0  0  0
 38 40  1  0  0  0  0
 34 41  1  0  0  0  0
 34 42  1  0  0  0  0
 41 42  1  0  0  0  0
 35 43  1  0  0  0  0
 39 43  1  0  0  0  0
 42 43  1  0  0  0  0
 41 44  1  0  0  0  0
 42 44  1  0  0  0  0
 43 45  1  0  0  0  0
 39 46  1  0  0  0  0
 43 46  1  0  0  0  0
 45 46  1  0  0  0  0
 39 47  1  0  0  0  0
 46 47  1  0  0  0  0
 40 48  1  0  0  0  0
 47 48  1  0  0  0  0
 46 49  1  0  0  0  0
 47 49  1  0  0  0  0
 48 50  1  0  0  0  0
 44 51  1  0  0  0  0
 44 52  1  0  0  0  0
 51 52  1  0  0  0  0
 45 53  1  0  0  0  0
 52 53  1  0  0  0  0
 51 54  1  0  0  0  0
 52 54  1  0  0  0  0
 53 54  1  0  0  0  0
 53 55  1  0  0  0  0
 45 56  1  0  0  0  0
 53 56  1  0  0  0  0
 55 56  1  0  0  0  0
 49 57  1  0  0  0  0
 56 57  1  0  0  0  0
 50 58  1  0  0  0  0
 57 58  1  0  0  0  0
 55 59  1  0  0  0  0
 56 59  1  0  0  0  0
 57 59  1  0  0  0  0
 58 60  1  0  0  0  0
 46 61  1  0  0  0  0
 49 61  1  0  0  0  0
 54 61  1  0  0  0  0
 54 62  1  0  0  0  0
 61 62  1  0  0  0  0
 62 63  1  0  0  0  0
 49 64  1  0  0  0  0
 57 64  1  0  0  0  0
 62 64  1  0  0  0  0
 63 64  1  0  0  0  0
 63 65  1  0  0  0  0
 55 66  1  0  0  0  0
 59 66  1  0  0  0  0
 65 66  1  0  0  0  0
 59 67  1  0  0  0  0
 66 67  1  0  0  0  0
 59 68  1  0  0  0  0
 60 68  1  0  0  0  0
 67 68  1  0  0  0  0
 65 69  1  0  0  0  0
 66 69  1  0  0  0  0
 67 69  1  0  0  0  0
 67 70  1  0  0  0  0
 68 70  1  0  0  0  0
 31 71  1  0  0  0  0
 31 72  1  0  0  0  0
 32 72  1  0  0  0  0
 33 73  1  0  0  0  0
 37 74  1  0  0  0  0
 38 75  1  0  0  0  0
 40 76  1  0  0  0  0
 41 77  1  0  0  0  0
 50 78  1  0  0  0  0
 51 79  1  0  0  0  0
 60 80  1  0  0  0  0
 61 81  1  0  0  0  0
 64 82  1  0  0  0  0
 65 83  1  0  0  0  0
 69 84  1  0  0  0  0
 70 85  1  0  0  0  0
M  END
