 xtb: 6.7.1pre (5071a88)
          09022615133D

 85122  0     0  0            999 V2000
    2.3530    1.3531   10.9893 O   0  0  0  0  0  0  0  0  0  0  0  0
    1.4952    0.9043   10.2015 C   0  0  0  0  0  0  0  0  0  0  0  0
    1.1568   -0.4796   10.0918 C   0  0  0  0  0  0  0  0  0  0  0  0
    0.2140   -0.9293    9.2107 C   0  0  0  0  0  0  0  0  0  0  0  0
   -0.1841   -2.3212    9.0652 C   0  0  0  0  0  0  0  0  0  0  0  0
   -1.4218   -2.6356    8.4899 C   0  0  0  0  0  0  0  0  0  0  0  0
   -1.8224   -3.9478    8.3510 C   0  0  0  0  0  0  0  0  0  0  0  0
   -0.9974   -4.9800    8.7713 C   0  0  0  0  0  0  0  0  0  0  0  0
    0.2363   -4.6828    9.3321 C   0  0  0  0  0  0  0  0  0  0  0  0
    0.6421   -3.3729    9.4798 C   0  0  0  0  0  0  0  0  0  0  0  0
   -0.4657   -0.0878    8.3849 O   0  0  0  0  0  0  0  0  0  0  0  0
   -0.2103    1.2440    8.4365 C   0  0  0  0  0  0  0  0  0  0  0  0
   -0.9260    2.0725    7.5833 C   0  0  0  0  0  0  0  0  0  0  0  0
   -0.7088    3.4459    7.5912 C   0  0  0  0  0  0  0  0  0  0  0  0
   -1.3901    4.2793    6.7675 O   0  0  0  0  0  0  0  0  0  0  0  0
    0.2358    4.0014    8.4615 C   0  0  0  0  0  0  0  0  0  0  0  0
    0.4548    5.3448    8.4806 O   0  0  0  0  0  0  0  0  0  0  0  0
    0.9594    3.1661    9.3141 C   0  0  0  0  0  0  0  0  0  0  0  0
    1.8672    3.7284   10.1378 O   0  0  0  0  0  0  0  0  0  0  0  0
    0.7436    1.7784    9.3068 C   0  0  0  0  0  0  0  0  0  0  0  0
    1.6543   -1.1684   10.7526 H   0  0  0  0  0  0  0  0  0  0  0  0
   -2.0678   -1.8335    8.1687 H   0  0  0  0  0  0  0  0  0  0  0  0
   -2.7850   -4.1711    7.9144 H   0  0  0  0  0  0  0  0  0  0  0  0
   -1.3112   -6.0070    8.6607 H   0  0  0  0  0  0  0  0  0  0  0  0
    0.8873   -5.4829    9.6484 H   0  0  0  0  0  0  0  0  0  0  0  0
    1.6121   -3.1602    9.8983 H   0  0  0  0  0  0  0  0  0  0  0  0
   -1.6572    1.6384    6.9190 H   0  0  0  0  0  0  0  0  0  0  0  0
   -2.0093    3.7715    6.2303 H   0  0  0  0  0  0  0  0  0  0  0  0
    1.1292    5.5054    9.1567 H   0  0  0  0  0  0  0  0  0  0  0  0
    2.2610    2.9603   10.6552 H   0  0  0  0  0  0  0  0  0  0  0  0
   -4.8529   -2.6140    0.0363 B   0  0  0  0  0  0  0  0  0  0  0  0
   -4.5480   -1.2757   -0.7607 B   0  0  0  0  0  0  0  0  0  0  0  0
   -4.3673   -0.0462   -1.8717 B   0  0  0  0  0  0  0  0  0  0  0  0
   -3.3953   -2.6214   -0.6502 B   0  0  0  0  0  0  0  0  0  0  0  0
   -2.9486    0.2735   -1.3091 B   0  0  0  0  0  0  0  0  0  0  0  0
   -4.3291    0.3709   -0.1274 B   0  0  0  0  0  0  0  0  0  0  0  0
   -5.0169    1.3775    0.9086 B   0  0  0  0  0  0  0  0  0  0  0  0
   -4.5906    2.9456    1.1482 B   0  0  0  0  0  0  0  0  0  0  0  0
   -2.7629    0.4726    0.3311 B   0  0  0  0  0  0  0  0  0  0  0  0
   -3.2198    3.1896    1.9961 B   0  0  0  0  0  0  0  0  0  0  0  0
   -2.1688   -3.7456   -0.6869 B   0  0  0  0  0  0  0  0  0  0  0  0
   -1.8539   -2.2092   -0.9552 B   0  0  0  0  0  0  0  0  0  0  0  0
   -1.6487   -0.5847   -0.7650 B   0  0  0  0  0  0  0  0  0  0  0  0
   -0.5741   -3.1915   -0.8265 B   0  0  0  0  0  0  0  0  0  0  0  0
   -0.1774   -0.1558   -0.2178 B   0  0  0  0  0  0  0  0  0  0  0  0
   -1.3455   -0.0253    0.9614 B   0  0  0  0  0  0  0  0  0  0  0  0
   -1.7273    1.5975    0.9556 B   0  0  0  0  0  0  0  0  0  0  0  0
   -1.8928    3.1665    1.1006 B   0  0  0  0  0  0  0  0  0  0  0  0
   -0.1611    0.9704    1.2077 B   0  0  0  0  0  0  0  0  0  0  0  0
   -0.7709    4.2907    0.7205 B   0  0  0  0  0  0  0  0  0  0  0  0
    0.8245   -4.1017   -0.6353 B   0  0  0  0  0  0  0  0  0  0  0  0
    0.9500   -2.5081   -0.7131 B   0  0  0  0  0  0  0  0  0  0  0  0
    1.2422   -0.9435   -0.5572 B   0  0  0  0  0  0  0  0  0  0  0  0
    2.2089   -3.3812   -0.0830 B   0  0  0  0  0  0  0  0  0  0  0  0
    2.6414   -0.1859   -0.2839 B   0  0  0  0  0  0  0  0  0  0  0  0
    1.2769    0.5081    0.2842 B   0  0  0  0  0  0  0  0  0  0  0  0
    1.1664    1.9715    1.1339 B   0  0  0  0  0  0  0  0  0  0  0  0
    0.5221    3.3882    0.7357 B   0  0  0  0  0  0  0  0  0  0  0  0
    2.4606    1.6664    0.1033 B   0  0  0  0  0  0  0  0  0  0  0  0
    1.0979    2.9749   -0.7824 B   0  0  0  0  0  0  0  0  0  0  0  0
    3.2611   -3.8697    1.1266 B   0  0  0  0  0  0  0  0  0  0  0  0
    3.6393   -2.6164    0.1519 B   0  0  0  0  0  0  0  0  0  0  0  0
    4.0519   -1.1079   -0.2404 B   0  0  0  0  0  0  0  0  0  0  0  0
    4.5065   -2.9046    1.4379 B   0  0  0  0  0  0  0  0  0  0  0  0
    5.3708   -0.2508   -0.7771 B   0  0  0  0  0  0  0  0  0  0  0  0
    4.1272    0.5573   -0.1308 B   0  0  0  0  0  0  0  0  0  0  0  0
    3.9844    2.3526   -0.1756 B   0  0  0  0  0  0  0  0  0  0  0  0
    2.6923    3.0633   -0.9657 B   0  0  0  0  0  0  0  0  0  0  0  0
    5.3931    1.5085   -0.4450 B   0  0  0  0  0  0  0  0  0  0  0  0
    4.1374    3.5636   -1.2036 B   0  0  0  0  0  0  0  0  0  0  0  0
   -5.3507   -3.2282    0.8995 H   0  0  0  0  0  0  0  0  0  0  0  0
   -5.7082   -1.9544   -0.6812 H   0  0  0  0  0  0  0  0  0  0  0  0
   -5.1350    0.1947   -2.7322 H   0  0  0  0  0  0  0  0  0  0  0  0
   -5.7988    0.9486    1.6937 H   0  0  0  0  0  0  0  0  0  0  0  0
   -5.3034    3.8158    0.7948 H   0  0  0  0  0  0  0  0  0  0  0  0
   -3.2724    3.2071    3.1751 H   0  0  0  0  0  0  0  0  0  0  0  0
   -2.3766   -4.8963   -0.6345 H   0  0  0  0  0  0  0  0  0  0  0  0
   -0.9459    5.4057    0.3896 H   0  0  0  0  0  0  0  0  0  0  0  0
    0.7953   -5.2545   -0.8330 H   0  0  0  0  0  0  0  0  0  0  0  0
    0.3783    2.6134   -1.6498 H   0  0  0  0  0  0  0  0  0  0  0  0
    3.0244   -4.8224    1.7622 H   0  0  0  0  0  0  0  0  0  0  0  0
    5.3936   -2.6417    2.1447 H   0  0  0  0  0  0  0  0  0  0  0  0
    6.3968   -0.6527   -1.1687 H   0  0  0  0  0  0  0  0  0  0  0  0
    6.4776    1.9416   -0.3748 H   0  0  0  0  0  0  0  0  0  0  0  0
    4.9143    4.2737   -1.7052 H   0  0  0  0  0  0  0  0  0  0  0  0
  1  2  2  0  0  0  0
  2  3  1  0  0  0  0
  3  4  2  0  0  0  0
  4  5  1  0  0  0  0
  5  6  4  0  0  0  0
  6  7  4  0  0  0  0
  7  8  4  0  0  0  0
  8  9  4  0  0  0  0
  5 10  4  0  0  0  0
  9 10  4  0  0  0  0
  4 11  1  0  0  0  0
 11 12  1  0  0  0  0
 12 13  4  0  0  0  0
 13 14  4  0  0  0  0
 14 15  1  0  0  0  0
 14 16  4  0  0  0  0
 16 17  1  0  0  0  0
 16 18  4  0  0  0  0
 18 19  1  0  0  0  0
  2 20  1  0  0  0  0
 12 20  4  0  0  0  0
 18 20  4  0  0  0  0
  3 21  1  0  0  0  0
  6 22  1  0  0  0  0
  7 23  1  0  0  0  0
  8 24  1  0  0  0  0
  9 25  1  0  0  0  0
 10 26  1  0  0  0  0
 13 27  1  0  0  0  0
 15 28  1  0  0  0  0
 17 29  1  0  0  0  0
 19 30  1  0  0  0  0
 31 32  1  0  0  0  0
 32 33  1  0  0  0  0
 31 34  1  0  0  0  0
 32 34  1  0  0  0  0
 33 35  1  0  0  0  0
 32 36  1  0  0  0  0
 33 36  1  0  0  0  0
 35 36  1  0  0  0  0
 36 37  1  0  0  0  0
 37 38  1  0  0  0  0
 35 39  1  0  0  0  0
 36 39  1  0  0  0  0
 38 40  1  0  0  0  0
 34 41  1  0  0  0  0
 34 42  1  0  0  0  0
 41 42  1  0  0  0  0
 35 43  1  0  0  0  0
 39 43  1  0  0  0  0
 42 43  1  0  0  0  0
 41 44  1  0  0  0  0
 42 44  1  0  0  0  0
 43 45  1  0  0  0  0
 39 46  1  0  0  0  0
 43 46  1  0  0  0  0
 45 46  1  0  0  0  0
 39 47  1  0  0  0  0
 46 47  1  0  0  0  0
 40 48  1  0  0  0  0
 47 48  1  0  0  0  0
 45 49  1  0  0  0  0
 46 49  1  0  0  0  0
 47 49  1  0  0  0  0
 48 50  1  0  0  0  0
 44 51  1  0  0  0  0
 44 52  1  0  0  0  0
 51 52  1  0  0  0  0
 45 53  1  0  0  0  0
 52 53  1  0  0  0  0
 51 54  1  0  0  0  0
 52 54  1  0  0  0  0
 53 55  1  0  0  0  0
 45 56  1  0  0  0  0
 49 56  1  0  0  0  0
 53 56  1  0  0  0  0
 55 56  1  0  0  0  0
 49 57  1  0  0  0  0
 56 57  1  0  0  0  0
 50 58  1  0  0  0  0
 57 58  1  0  0  0  0
 55 59  1  0  0  0  0
 56 59  1  0  0  0  0
 57 59  1  0  0  0  0
 58 60  1  0  0  0  0
 54 61  1  0  0  0  0
 54 62  1  0  0  0  0
 61 62  1  0  0  0  0
 55 63  1  0  0  0  0
 62 63  1  0  0  0  0
 61 64  1  0  0  0  0
 62 64  1  0  0  0  0
 63 65  1  0  0  0  0
 55 66  1  0  0  0  0
 63 66  1  0  0  0  0
 65 66  1  0  0  0  0
 59 67  1  0  0  0  0
 66 67  1  0  0  0  0
 59 68  1  0  0  0  0
 60 68  1  0  0  0  0
 67 68  1  0  0  0  0
 65 69  1  0  0  0  0
 66 69  1  0  0  0  0
 67 69  1  0  0  0  0
 67 70  1  0  0  0  0
 68 70  1  0  0  0  0
 31 71  1  0  0  0  0
 31 72  1  0  0  0  0
 32 72  1  0  0  0  0
 33 73  1  0  0  0  0
 37 74  1  0  0  0  0
 38 75  1  0  0  0  0
 40 76  1  0  0  0  0
 41 77  1  0  0  0  0
 50 78  1  0  0  0  0
 51 79  1  0  0  0  0
 60 80  1  0  0  0  0
 61 81  1  0  0  0  0
 64 82  1  0  0  0  0
 65 83  1  0  0  0  0
 69 84  1  0  0  0  0
 70 85  1  0  0  0  0
M  END
