 xtb: 6.7.1pre (5071a88)
          09012616373D

 90132  0     0  0            999 V2000
   -2.4015   -1.3466    9.7151 O   0  0  0  0  0  0  0  0  0  0  0  0
   -1.5255   -0.8955    8.9450 C   0  0  0  0  0  0  0  0  0  0  0  0
   -1.1822    0.4849    8.8408 C   0  0  0  0  0  0  0  0  0  0  0  0
   -0.2200    0.9367    7.9775 C   0  0  0  0  0  0  0  0  0  0  0  0
    0.1770    2.3252    7.8327 C   0  0  0  0  0  0  0  0  0  0  0  0
    1.4222    2.6395    7.2696 C   0  0  0  0  0  0  0  0  0  0  0  0
    1.8219    3.9508    7.1284 C   0  0  0  0  0  0  0  0  0  0  0  0
    0.9899    4.9836    7.5320 C   0  0  0  0  0  0  0  0  0  0  0  0
   -0.2505    4.6888    8.0788 C   0  0  0  0  0  0  0  0  0  0  0  0
   -0.6555    3.3806    8.2303 C   0  0  0  0  0  0  0  0  0  0  0  0
    0.4797    0.0893    7.1640 O   0  0  0  0  0  0  0  0  0  0  0  0
    0.2174   -1.2391    7.2163 C   0  0  0  0  0  0  0  0  0  0  0  0
    0.9519   -2.0710    6.3815 C   0  0  0  0  0  0  0  0  0  0  0  0
    0.7333   -3.4439    6.3832 C   0  0  0  0  0  0  0  0  0  0  0  0
    1.4442   -4.2729    5.5718 O   0  0  0  0  0  0  0  0  0  0  0  0
   -0.2334   -3.9984    7.2266 C   0  0  0  0  0  0  0  0  0  0  0  0
   -0.4586   -5.3409    7.2376 O   0  0  0  0  0  0  0  0  0  0  0  0
   -0.9734   -3.1588    8.0620 C   0  0  0  0  0  0  0  0  0  0  0  0
   -1.8993   -3.7241    8.8684 O   0  0  0  0  0  0  0  0  0  0  0  0
   -0.7566   -1.7728    8.0636 C   0  0  0  0  0  0  0  0  0  0  0  0
   -1.6881    1.1812    9.4864 H   0  0  0  0  0  0  0  0  0  0  0  0
    2.0722    1.8366    6.9648 H   0  0  0  0  0  0  0  0  0  0  0  0
    2.7898    4.1752    6.7056 H   0  0  0  0  0  0  0  0  0  0  0  0
    1.3044    6.0104    7.4196 H   0  0  0  0  0  0  0  0  0  0  0  0
   -0.9063    5.4905    8.3836 H   0  0  0  0  0  0  0  0  0  0  0  0
   -1.6278    3.1644    8.6431 H   0  0  0  0  0  0  0  0  0  0  0  0
    1.7002   -1.6362    5.7366 H   0  0  0  0  0  0  0  0  0  0  0  0
    2.0824   -3.7546    5.0674 H   0  0  0  0  0  0  0  0  0  0  0  0
   -1.1495   -5.5011    7.8961 H   0  0  0  0  0  0  0  0  0  0  0  0
   -2.3022   -2.9574    9.3770 H   0  0  0  0  0  0  0  0  0  0  0  0
   -6.8526   -4.6759    0.4450 B   0  0  0  0  0  0  0  0  0  0  0  0
   -5.1197   -2.2087    0.3464 B   0  0  0  0  0  0  0  0  0  0  0  0
   -3.5975   -2.1933    0.2043 B   0  0  0  0  0  0  0  0  0  0  0  0
    0.9951   -2.8811    0.2525 B   0  0  0  0  0  0  0  0  0  0  0  0
    2.4772   -3.0304   -0.0732 B   0  0  0  0  0  0  0  0  0  0  0  0
    5.2625   -3.8041   -0.6869 B   0  0  0  0  0  0  0  0  0  0  0  0
    6.1839   -4.7457   -1.4247 B   0  0  0  0  0  0  0  0  0  0  0  0
   -6.4191   -3.1649    0.3502 B   0  0  0  0  0  0  0  0  0  0  0  0
   -6.7742   -1.6516    0.2866 B   0  0  0  0  0  0  0  0  0  0  0  0
   -2.0696   -2.3378    0.3494 B   0  0  0  0  0  0  0  0  0  0  0  0
   -0.5010   -2.4838    0.3462 B   0  0  0  0  0  0  0  0  0  0  0  0
    4.0144   -2.8852   -0.1528 B   0  0  0  0  0  0  0  0  0  0  0  0
    5.7490   -2.3029   -0.1989 B   0  0  0  0  0  0  0  0  0  0  0  0
    6.7953   -3.2089   -1.0735 B   0  0  0  0  0  0  0  0  0  0  0  0
   -7.6445   -0.2632    0.3198 B   0  0  0  0  0  0  0  0  0  0  0  0
   -6.0334   -0.1690    0.1002 B   0  0  0  0  0  0  0  0  0  0  0  0
   -4.4261   -0.5579    0.1517 B   0  0  0  0  0  0  0  0  0  0  0  0
   -2.7254   -0.6775    0.1995 B   0  0  0  0  0  0  0  0  0  0  0  0
   -1.0552   -0.9087    0.5871 B   0  0  0  0  0  0  0  0  0  0  0  0
    0.5057   -1.1839    0.7654 B   0  0  0  0  0  0  0  0  0  0  0  0
    3.1065   -1.4658   -0.0348 B   0  0  0  0  0  0  0  0  0  0  0  0
    4.6785   -1.1647    0.4390 B   0  0  0  0  0  0  0  0  0  0  0  0
    6.2502   -0.8020    0.3351 B   0  0  0  0  0  0  0  0  0  0  0  0
    7.6830   -0.3586    1.0490 B   0  0  0  0  0  0  0  0  0  0  0  0
   -6.8853    1.1932    0.0880 B   0  0  0  0  0  0  0  0  0  0  0  0
   -3.4043    0.7595   -0.0544 B   0  0  0  0  0  0  0  0  0  0  0  0
   -1.6575    0.5328    0.0303 B   0  0  0  0  0  0  0  0  0  0  0  0
    1.8401   -0.3858    0.3394 B   0  0  0  0  0  0  0  0  0  0  0  0
    3.5708   -0.1494    0.8414 B   0  0  0  0  0  0  0  0  0  0  0  0
    6.9523    0.5952   -0.0643 B   0  0  0  0  0  0  0  0  0  0  0  0
    8.3203    1.0391    0.5807 B   0  0  0  0  0  0  0  0  0  0  0  0
   -7.5293    2.7946    0.3330 B   0  0  0  0  0  0  0  0  0  0  0  0
   -6.1637    2.4930   -0.4256 B   0  0  0  0  0  0  0  0  0  0  0  0
   -3.5824    2.2954   -0.4118 B   0  0  0  0  0  0  0  0  0  0  0  0
   -0.8880    1.8227   -0.4790 B   0  0  0  0  0  0  0  0  0  0  0  0
    1.6192    1.0401   -0.3784 B   0  0  0  0  0  0  0  0  0  0  0  0
    2.9838    1.3032    0.6029 B   0  0  0  0  0  0  0  0  0  0  0  0
    6.3386    1.8620   -0.8487 B   0  0  0  0  0  0  0  0  0  0  0  0
   -6.4987    4.0284   -0.2510 B   0  0  0  0  0  0  0  0  0  0  0  0
   -4.8826    3.4367   -0.5987 B   0  0  0  0  0  0  0  0  0  0  0  0
   -3.4252    3.8477   -0.7756 B   0  0  0  0  0  0  0  0  0  0  0  0
   -2.0157    3.2253   -0.7750 B   0  0  0  0  0  0  0  0  0  0  0  0
   -0.4830    3.3044   -0.9040 B   0  0  0  0  0  0  0  0  0  0  0  0
    0.7254    2.3652   -0.7222 B   0  0  0  0  0  0  0  0  0  0  0  0
    2.3363    2.5020   -0.3922 B   0  0  0  0  0  0  0  0  0  0  0  0
    3.8089    2.6231    0.0178 B   0  0  0  0  0  0  0  0  0  0  0  0
    5.3638    2.8597   -0.0401 B   0  0  0  0  0  0  0  0  0  0  0  0
    6.0545    4.0496    0.7734 B   0  0  0  0  0  0  0  0  0  0  0  0
    6.1896    5.1383    0.3389 H   0  0  0  0  0  0  0  0  0  0  0  0
    8.2762   -1.1052    1.7275 H   0  0  0  0  0  0  0  0  0  0  0  0
    6.5549    1.9953   -2.0045 H   0  0  0  0  0  0  0  0  0  0  0  0
   -6.9037   -5.3923   -0.4967 H   0  0  0  0  0  0  0  0  0  0  0  0
   -6.7489    5.1685   -0.3398 H   0  0  0  0  0  0  0  0  0  0  0  0
    9.1972    1.8014    0.6702 H   0  0  0  0  0  0  0  0  0  0  0  0
   -8.8157   -0.3180    0.3609 H   0  0  0  0  0  0  0  0  0  0  0  0
    6.5739   -5.7096   -1.9527 H   0  0  0  0  0  0  0  0  0  0  0  0
   -8.5564    2.9872    0.8584 H   0  0  0  0  0  0  0  0  0  0  0  0
    7.8902   -2.8950   -1.3646 H   0  0  0  0  0  0  0  0  0  0  0  0
    6.4512    3.9085    1.8755 H   0  0  0  0  0  0  0  0  0  0  0  0
   -7.2176   -5.1961    1.4433 H   0  0  0  0  0  0  0  0  0  0  0  0
  1  2  2  0  0  0  0
  2  3  1  0  0  0  0
  3  4  2  0  0  0  0
  4  5  1  0  0  0  0
  5  6  4  0  0  0  0
  6  7  4  0  0  0  0
  7  8  4  0  0  0  0
  8  9  4  0  0  0  0
  5 10  4  0  0  0  0
  9 10  4  0  0  0  0
  4 11  1  0  0  0  0
 11 12  1  0  0  0  0
 12 13  4  0  0  0  0
 13 14  4  0  0  0  0
 14 15  1  0  0  0  0
 14 16  4  0  0  0  0
 16 17  1  0  0  0  0
 16 18  4  0  0  0  0
 18 19  1  0  0  0  0
  2 20  1  0  0  0  0
 12 20  4  0  0  0  0
 18 20  4  0  0  0  0
  3 21  1  0  0  0  0
  6 22  1  0  0  0  0
  7 23  1  0  0  0  0
  8 24  1  0  0  0  0
  9 25  1  0  0  0  0
 10 26  1  0  0  0  0
 13 27  1  0  0  0  0
 15 28  1  0  0  0  0
 17 29  1  0  0  0  0
 19 30  1  0  0  0  0
 32 33  1  0  0  0  0
 34 35  2  0  0  0  0
 36 37  2  0  0  0  0
 31 38  1  0  0  0  0
 32 38  1  0  0  0  0
 32 39  1  0  0  0  0
 38 39  1  0  0  0  0
 33 40  1  0  0  0  0
 34 41  1  0  0  0  0
 40 41  1  0  0  0  0
 35 42  1  0  0  0  0
 36 42  1  0  0  0  0
 36 43  1  0  0  0  0
 42 43  1  0  0  0  0
 36 44  1  0  0  0  0
 37 44  1  0  0  0  0
 43 44  1  0  0  0  0
 39 45  1  0  0  0  0
 39 46  1  0  0  0  0
 45 46  1  0  0  0  0
 32 47  1  0  0  0  0
 33 47  1  0  0  0  0
 46 47  1  0  0  0  0
 33 48  1  0  0  0  0
 40 48  1  0  0  0  0
 47 48  1  0  0  0  0
 40 49  1  0  0  0  0
 41 49  1  0  0  0  0
 48 49  1  0  0  0  0
 34 50  1  0  0  0  0
 41 50  1  0  0  0  0
 49 50  1  0  0  0  0
 35 51  1  0  0  0  0
 42 51  1  0  0  0  0
 42 52  1  0  0  0  0
 43 52  1  0  0  0  0
 51 52  1  0  0  0  0
 43 53  1  0  0  0  0
 52 53  1  0  0  0  0
 53 54  1  0  0  0  0
 45 55  1  0  0  0  0
 46 55  1  0  0  0  0
 47 56  1  0  0  0  0
 48 56  1  0  0  0  0
 48 57  1  0  0  0  0
 49 57  1  0  0  0  0
 56 57  1  0  0  0  0
 50 58  1  0  0  0  0
 51 58  1  0  0  0  0
 51 59  1  0  0  0  0
 52 59  1  0  0  0  0
 58 59  1  0  0  0  0
 53 60  1  0  0  0  0
 54 60  1  0  0  0  0
 54 61  1  0  0  0  0
 60 61  1  0  0  0  0
 55 62  1  0  0  0  0
 55 63  1  0  0  0  0
 62 63  1  0  0  0  0
 56 64  1  0  0  0  0
 57 65  1  0  0  0  0
 58 66  1  0  0  0  0
 59 67  1  0  0  0  0
 66 67  1  0  0  0  0
 60 68  1  0  0  0  0
 62 69  1  0  0  0  0
 63 69  1  0  0  0  0
 63 70  1  0  0  0  0
 64 70  1  0  0  0  0
 69 70  1  0  0  0  0
 64 71  1  0  0  0  0
 70 71  1  0  0  0  0
 64 72  1  0  0  0  0
 65 72  1  0  0  0  0
 71 72  1  0  0  0  0
 65 73  1  0  0  0  0
 72 73  1  0  0  0  0
 65 74  1  0  0  0  0
 66 74  1  0  0  0  0
 73 74  1  0  0  0  0
 66 75  1  0  0  0  0
 67 75  1  0  0  0  0
 74 75  1  0  0  0  0
 67 76  1  0  0  0  0
 75 76  1  0  0  0  0
 68 77  1  0  0  0  0
 76 77  1  0  0  0  0
 77 78  1  0  0  0  0
 78 79  1  0  0  0  0
 54 80  1  0  0  0  0
 68 81  1  0  0  0  0
 31 82  1  0  0  0  0
 69 83  1  0  0  0  0
 61 84  1  0  0  0  0
 45 85  1  0  0  0  0
 37 86  1  0  0  0  0
 62 87  1  0  0  0  0
 44 88  1  0  0  0  0
 78 89  1  0  0  0  0
 31 90  1  0  0  0  0
M  END
