 xtb: 6.7.1pre (5071a88)
          08312620223D

 90122  0     0  0            999 V2000
    1.2649   -2.1404    5.7798 O   0  0  0  0  0  0  0  0  0  0  0  0
    0.8683   -1.3524    4.9283 C   0  0  0  0  0  0  0  0  0  0  0  0
   -0.5571   -1.0329    4.7719 C   0  0  0  0  0  0  0  0  0  0  0  0
   -0.9273   -0.1668    3.8172 C   0  0  0  0  0  0  0  0  0  0  0  0
   -2.3414    0.2030    3.6161 C   0  0  0  0  0  0  0  0  0  0  0  0
   -2.6918    1.5456    3.4082 C   0  0  0  0  0  0  0  0  0  0  0  0
   -4.0247    1.9135    3.2078 C   0  0  0  0  0  0  0  0  0  0  0  0
   -5.0234    0.9426    3.2061 C   0  0  0  0  0  0  0  0  0  0  0  0
   -4.6908   -0.3959    3.4010 C   0  0  0  0  0  0  0  0  0  0  0  0
   -3.3579   -0.7646    3.6023 C   0  0  0  0  0  0  0  0  0  0  0  0
   -0.0459    0.4752    2.9602 O   0  0  0  0  0  0  0  0  0  0  0  0
    1.2949    0.1985    3.0711 C   0  0  0  0  0  0  0  0  0  0  0  0
    2.1512    0.8539    2.1811 C   0  0  0  0  0  0  0  0  0  0  0  0
    3.5236    0.6145    2.2468 C   0  0  0  0  0  0  0  0  0  0  0  0
    4.3785    1.2431    1.3874 O   0  0  0  0  0  0  0  0  0  0  0  0
    4.0338   -0.2723    3.1949 C   0  0  0  0  0  0  0  0  0  0  0  0
    5.3788   -0.5152    3.2697 O   0  0  0  0  0  0  0  0  0  0  0  0
    3.1797   -0.9262    4.0822 C   0  0  0  0  0  0  0  0  0  0  0  0
    3.7570   -1.7842    4.9862 O   0  0  0  0  0  0  0  0  0  0  0  0
    1.8061   -0.6887    4.0179 C   0  0  0  0  0  0  0  0  0  0  0  0
   -1.2452   -1.5143    5.4545 H   0  0  0  0  0  0  0  0  0  0  0  0
   -1.9280    2.3205    3.4077 H   0  0  0  0  0  0  0  0  0  0  0  0
   -4.2819    2.9582    3.0527 H   0  0  0  0  0  0  0  0  0  0  0  0
   -6.0603    1.2287    3.0489 H   0  0  0  0  0  0  0  0  0  0  0  0
   -5.4687   -1.1554    3.3919 H   0  0  0  0  0  0  0  0  0  0  0  0
   -3.1246   -1.8187    3.7349 H   0  0  0  0  0  0  0  0  0  0  0  0
    1.7367    1.5407    1.4495 H   0  0  0  0  0  0  0  0  0  0  0  0
    3.8778    1.8148    0.7854 H   0  0  0  0  0  0  0  0  0  0  0  0
    5.4807   -1.1586    3.9983 H   0  0  0  0  0  0  0  0  0  0  0  0
    3.0369   -2.1662    5.5400 H   0  0  0  0  0  0  0  0  0  0  0  0
   -7.5000   -4.5000    0.0000 B   0  0  0  0  0  0  0  0  0  0  0  0
   -4.5000   -4.5000    0.0000 B   0  0  0  0  0  0  0  0  0  0  0  0
   -1.5000   -4.5000    0.0000 B   0  0  0  0  0  0  0  0  0  0  0  0
    1.5000   -4.5000    0.0000 B   0  0  0  0  0  0  0  0  0  0  0  0
    4.5000   -4.5000    0.0000 B   0  0  0  0  0  0  0  0  0  0  0  0
    7.5000   -4.5000    0.0000 B   0  0  0  0  0  0  0  0  0  0  0  0
   -7.5000   -3.0000    0.0000 B   0  0  0  0  0  0  0  0  0  0  0  0
   -4.5000   -3.0000    0.0000 B   0  0  0  0  0  0  0  0  0  0  0  0
   -1.5000   -3.0000    0.0000 B   0  0  0  0  0  0  0  0  0  0  0  0
    1.5000   -3.0000    0.0000 B   0  0  0  0  0  0  0  0  0  0  0  0
    4.5000   -3.0000    0.0000 B   0  0  0  0  0  0  0  0  0  0  0  0
    7.5000   -3.0000    0.0000 B   0  0  0  0  0  0  0  0  0  0  0  0
   -7.5000   -1.5000    0.0000 B   0  0  0  0  0  0  0  0  0  0  0  0
   -4.5000   -1.5000    0.0000 B   0  0  0  0  0  0  0  0  0  0  0  0
   -1.5000   -1.5000    0.0000 B   0  0  0  0  0  0  0  0  0  0  0  0
    1.5000   -1.5000    0.0000 B   0  0  0  0  0  0  0  0  0  0  0  0
    4.5000   -1.5000    0.0000 B   0  0  0  0  0  0  0  0  0  0  0  0
    7.5000   -1.5000    0.0000 B   0  0  0  0  0  0  0  0  0  0  0  0
   -7.5000    0.0000    0.0000 B   0  0  0  0  0  0  0  0  0  0  0  0
   -4.5000    0.0000    0.0000 B   0  0  0  0  0  0  0  0  0  0  0  0
   -1.5000    0.0000    0.0000 B   0  0  0  0  0  0  0  0  0  0  0  0
    1.5000    0.0000    0.0000 B   0  0  0  0  0  0  0  0  0  0  0  0
    4.5000    0.0000    0.0000 B   0  0  0  0  0  0  0  0  0  0  0  0
    7.5000    0.0000    0.0000 B   0  0  0  0  0  0  0  0  0  0  0  0
   -7.5000    1.5000    0.0000 B   0  0  0  0  0  0  0  0  0  0  0  0
   -4.5000    1.5000    0.0000 B   0  0  0  0  0  0  0  0  0  0  0  0
   -1.5000    1.5000    0.0000 B   0  0  0  0  0  0  0  0  0  0  0  0
    1.5000    1.5000    0.0000 B   0  0  0  0  0  0  0  0  0  0  0  0
    4.5000    1.5000    0.0000 B   0  0  0  0  0  0  0  0  0  0  0  0
    7.5000    1.5000    0.0000 B   0  0  0  0  0  0  0  0  0  0  0  0
   -7.5000    3.0000    0.0000 B   0  0  0  0  0  0  0  0  0  0  0  0
   -4.5000    3.0000    0.0000 B   0  0  0  0  0  0  0  0  0  0  0  0
   -1.5000    3.0000    0.0000 B   0  0  0  0  0  0  0  0  0  0  0  0
    1.5000    3.0000    0.0000 B   0  0  0  0  0  0  0  0  0  0  0  0
    4.5000    3.0000    0.0000 B   0  0  0  0  0  0  0  0  0  0  0  0
    7.5000    3.0000    0.0000 B   0  0  0  0  0  0  0  0  0  0  0  0
   -7.5000    4.5000    0.0000 B   0  0  0  0  0  0  0  0  0  0  0  0
   -4.5000    4.5000    0.0000 B   0  0  0  0  0  0  0  0  0  0  0  0
   -1.5000    4.5000    0.0000 B   0  0  0  0  0  0  0  0  0  0  0  0
    1.5000    4.5000    0.0000 B   0  0  0  0  0  0  0  0  0  0  0  0
    4.5000    4.5000    0.0000 B   0  0  0  0  0  0  0  0  0  0  0  0
    7.5000    4.5000    0.0000 B   0  0  0  0  0  0  0  0  0  0  0  0
   -6.0000   -3.7500    0.0000 B   0  0  0  0  0  0  0  0  0  0  0  0
   -3.0000   -3.7500    0.0000 B   0  0  0  0  0  0  0  0  0  0  0  0
    0.0000   -3.7500    0.0000 B   0  0  0  0  0  0  0  0  0  0  0  0
    3.0000   -3.7500    0.0000 B   0  0  0  0  0  0  0  0  0  0  0  0
    6.0000   -3.7500    0.0000 B   0  0  0  0  0  0  0  0  0  0  0  0
   -6.0000    3.7500    0.0000 B   0  0  0  0  0  0  0  0  0  0  0  0
   -3.0000    3.7500    0.0000 B   0  0  0  0  0  0  0  0  0  0  0  0
    0.0000    3.7500    0.0000 B   0  0  0  0  0  0  0  0  0  0  0  0
    3.0000    3.7500    0.0000 B   0  0  0  0  0  0  0  0  0  0  0  0
    6.0000    3.7500    0.0000 B   0  0  0  0  0  0  0  0  0  0  0  0
   -6.0000    0.0000    0.0000 B   0  0  0  0  0  0  0  0  0  0  0  0
   -8.6000   -4.5000    0.0000 H   0  0  0  0  0  0  0  0  0  0  0  0
   -8.6000   -1.5000    0.0000 H   0  0  0  0  0  0  0  0  0  0  0  0
   -8.6000    1.5000    0.0000 H   0  0  0  0  0  0  0  0  0  0  0  0
   -8.6000    4.5000    0.0000 H   0  0  0  0  0  0  0  0  0  0  0  0
    8.6000   -4.5000    0.0000 H   0  0  0  0  0  0  0  0  0  0  0  0
    8.6000   -1.5000    0.0000 H   0  0  0  0  0  0  0  0  0  0  0  0
    8.6000    1.5000    0.0000 H   0  0  0  0  0  0  0  0  0  0  0  0
  1  2  2  0  0  0  0
  2  3  1  0  0  0  0
  3  4  2  0  0  0  0
  4  5  1  0  0  0  0
  5  6  4  0  0  0  0
  6  7  4  0  0  0  0
  7  8  4  0  0  0  0
  8  9  4  0  0  0  0
  5 10  4  0  0  0  0
  9 10  4  0  0  0  0
  4 11  1  0  0  0  0
 11 12  1  0  0  0  0
 12 13  4  0  0  0  0
 13 14  4  0  0  0  0
 14 15  1  0  0  0  0
 14 16  4  0  0  0  0
 16 17  1  0  0  0  0
 16 18  4  0  0  0  0
 18 19  1  0  0  0  0
  2 20  1  0  0  0  0
 12 20  4  0  0  0  0
 18 20  4  0  0  0  0
  3 21  1  0  0  0  0
  6 22  1  0  0  0  0
  7 23  1  0  0  0  0
  8 24  1  0  0  0  0
  9 25  1  0  0  0  0
 10 26  1  0  0  0  0
 13 27  1  0  0  0  0
 15 28  1  0  0  0  0
 17 29  1  0  0  0  0
 19 30  1  0  0  0  0
 31 37  1  0  0  0  0
 32 38  1  0  0  0  0
 33 39  1  0  0  0  0
 34 40  1  0  0  0  0
 35 41  1  0  0  0  0
 36 42  1  0  0  0  0
 37 43  1  0  0  0  0
 38 44  1  0  0  0  0
 39 45  1  0  0  0  0
 40 46  1  0  0  0  0
 41 47  1  0  0  0  0
 42 48  1  0  0  0  0
 43 49  1  0  0  0  0
 44 50  1  0  0  0  0
 45 51  2  0  0  0  0
 46 52  2  0  0  0  0
 47 53  2  0  0  0  0
 48 54  1  0  0  0  0
 49 55  1  0  0  0  0
 50 56  1  0  0  0  0
 51 57  2  0  0  0  0
 52 58  2  0  0  0  0
 15 59  1  0  0  0  0
 53 59  1  0  0  0  0
 54 60  2  0  0  0  0
 55 61  1  0  0  0  0
 56 62  1  0  0  0  0
 57 63  1  0  0  0  0
 58 64  1  0  0  0  0
 59 65  1  0  0  0  0
 60 66  1  0  0  0  0
 61 67  1  0  0  0  0
 62 68  1  0  0  0  0
 63 69  1  0  0  0  0
 64 70  1  0  0  0  0
 65 71  1  0  0  0  0
 66 72  2  0  0  0  0
 31 73  1  0  0  0  0
 32 73  1  0  0  0  0
 37 73  1  0  0  0  0
 38 73  1  0  0  0  0
 32 74  1  0  0  0  0
 33 74  1  0  0  0  0
 38 74  1  0  0  0  0
 39 74  1  0  0  0  0
 33 75  1  0  0  0  0
 34 75  1  0  0  0  0
 39 75  1  0  0  0  0
 40 75  1  0  0  0  0
 34 76  1  0  0  0  0
 35 76  1  0  0  0  0
 40 76  1  0  0  0  0
 41 76  1  0  0  0  0
 35 77  1  0  0  0  0
 36 77  1  0  0  0  0
 41 77  1  0  0  0  0
 42 77  1  0  0  0  0
 61 78  1  0  0  0  0
 62 78  1  0  0  0  0
 67 78  1  0  0  0  0
 68 78  1  0  0  0  0
 62 79  1  0  0  0  0
 63 79  1  0  0  0  0
 68 79  1  0  0  0  0
 69 79  1  0  0  0  0
 63 80  1  0  0  0  0
 64 80  1  0  0  0  0
 69 80  1  0  0  0  0
 70 80  1  0  0  0  0
 64 81  1  0  0  0  0
 65 81  1  0  0  0  0
 70 81  1  0  0  0  0
 71 81  1  0  0  0  0
 65 82  1  0  0  0  0
 66 82  1  0  0  0  0
 71 82  1  0  0  0  0
 72 82  1  0  0  0  0
 43 83  1  0  0  0  0
 44 83  1  0  0  0  0
 49 83  1  0  0  0  0
 50 83  1  0  0  0  0
 55 83  1  0  0  0  0
 56 83  1  0  0  0  0
 31 84  1  0  0  0  0
 43 85  1  0  0  0  0
 55 86  1  0  0  0  0
 67 87  1  0  0  0  0
 36 88  1  0  0  0  0
 48 89  1  0  0  0  0
 60 90  1  0  0  0  0
M  END
