 xtb: 6.7.1pre (5071a88)
          09022615243D

112151  0     0  0            999 V2000
   -1.4005   -6.7621    9.2225 C   0  0  0  0  0  0  0  0  0  0  0  0
   -0.5366   -6.8099    8.1170 O   0  0  0  0  0  0  0  0  0  0  0  0
   -0.2885   -5.6551    7.4367 C   0  0  0  0  0  0  0  0  0  0  0  0
   -0.8314   -4.4143    7.7546 C   0  0  0  0  0  0  0  0  0  0  0  0
   -0.5005   -3.3172    6.9864 C   0  0  0  0  0  0  0  0  0  0  0  0
    0.3650   -3.4462    5.8995 C   0  0  0  0  0  0  0  0  0  0  0  0
    0.9188   -4.6896    5.5649 C   0  0  0  0  0  0  0  0  0  0  0  0
    0.5973   -5.7877    6.3337 C   0  0  0  0  0  0  0  0  0  0  0  0
    1.0703   -7.0510    6.1333 O   0  0  0  0  0  0  0  0  0  0  0  0
    1.9333   -7.2631    5.0434 C   0  0  0  0  0  0  0  0  0  0  0  0
    0.5783   -2.1693    5.2701 C   0  0  0  0  0  0  0  0  0  0  0  0
    1.2931   -1.9073    4.3067 O   0  0  0  0  0  0  0  0  0  0  0  0
   -0.2528   -1.1219    6.0248 C   0  0  0  0  0  0  0  0  0  0  0  0
    0.6616    0.0247    6.4750 C   0  0  0  0  0  0  0  0  0  0  0  0
   -0.0305    1.3695    6.7174 C   0  0  0  0  0  0  0  0  0  0  0  0
   -1.0462    1.3353    7.8569 C   0  0  0  0  0  0  0  0  0  0  0  0
   -1.7742    2.6805    7.9546 C   0  0  0  0  0  0  0  0  0  0  0  0
   -0.9318    3.7746    7.5083 N   0  0  0  0  0  0  0  0  0  0  0  0
   -1.4640    5.0602    7.9078 C   0  0  0  0  0  0  0  0  0  0  0  0
   -0.7260    6.1930    7.2495 C   0  0  0  0  0  0  0  0  0  0  0  0
   -0.4129    7.3501    7.9489 C   0  0  0  0  0  0  0  0  0  0  0  0
    0.2591    8.3874    7.3242 C   0  0  0  0  0  0  0  0  0  0  0  0
    0.6331    8.2720    5.9967 C   0  0  0  0  0  0  0  0  0  0  0  0
    0.3276    7.1167    5.2951 C   0  0  0  0  0  0  0  0  0  0  0  0
   -0.3526    6.0855    5.9151 C   0  0  0  0  0  0  0  0  0  0  0  0
    0.4473    3.5631    7.8943 C   0  0  0  0  0  0  0  0  0  0  0  0
    1.0315    2.4380    7.0330 C   0  0  0  0  0  0  0  0  0  0  0  0
   -0.9447   -1.8959    7.1606 C   0  0  0  0  0  0  0  0  0  0  0  0
   -2.4051   -6.4322    8.9370 H   0  0  0  0  0  0  0  0  0  0  0  0
   -1.0144   -6.1053   10.0097 H   0  0  0  0  0  0  0  0  0  0  0  0
   -1.4515   -7.7821    9.5997 H   0  0  0  0  0  0  0  0  0  0  0  0
   -1.5005   -4.3022    8.5930 H   0  0  0  0  0  0  0  0  0  0  0  0
    1.5861   -4.7460    4.7207 H   0  0  0  0  0  0  0  0  0  0  0  0
    1.4350   -7.0442    4.0939 H   0  0  0  0  0  0  0  0  0  0  0  0
    2.8419   -6.6578    5.1222 H   0  0  0  0  0  0  0  0  0  0  0  0
    2.1969   -8.3190    5.0796 H   0  0  0  0  0  0  0  0  0  0  0  0
   -0.9874   -0.7135    5.3232 H   0  0  0  0  0  0  0  0  0  0  0  0
    1.1962   -0.2832    7.3771 H   0  0  0  0  0  0  0  0  0  0  0  0
    1.4034    0.1744    5.6867 H   0  0  0  0  0  0  0  0  0  0  0  0
   -0.5612    1.6683    5.8105 H   0  0  0  0  0  0  0  0  0  0  0  0
   -1.7850    0.5531    7.6940 H   0  0  0  0  0  0  0  0  0  0  0  0
   -0.5287    1.1180    8.7940 H   0  0  0  0  0  0  0  0  0  0  0  0
   -2.1154    2.8319    8.9968 H   0  0  0  0  0  0  0  0  0  0  0  0
   -2.6616    2.6745    7.3137 H   0  0  0  0  0  0  0  0  0  0  0  0
   -1.4517    5.1925    9.0076 H   0  0  0  0  0  0  0  0  0  0  0  0
   -2.5119    5.0896    7.5857 H   0  0  0  0  0  0  0  0  0  0  0  0
   -0.6959    7.4428    8.9887 H   0  0  0  0  0  0  0  0  0  0  0  0
    0.4953    9.2848    7.8782 H   0  0  0  0  0  0  0  0  0  0  0  0
    1.1624    9.0794    5.5123 H   0  0  0  0  0  0  0  0  0  0  0  0
    0.6197    7.0186    4.2605 H   0  0  0  0  0  0  0  0  0  0  0  0
   -0.5922    5.1820    5.3767 H   0  0  0  0  0  0  0  0  0  0  0  0
    0.5321    3.3167    8.9686 H   0  0  0  0  0  0  0  0  0  0  0  0
    1.0049    4.4861    7.7265 H   0  0  0  0  0  0  0  0  0  0  0  0
    1.4046    2.8546    6.0983 H   0  0  0  0  0  0  0  0  0  0  0  0
    1.8710    1.9867    7.5654 H   0  0  0  0  0  0  0  0  0  0  0  0
   -0.6393   -1.5255    8.1406 H   0  0  0  0  0  0  0  0  0  0  0  0
   -2.0329   -1.8230    7.1051 H   0  0  0  0  0  0  0  0  0  0  0  0
   -4.8684   -2.4100    0.6045 B   0  0  0  0  0  0  0  0  0  0  0  0
   -4.3985   -0.9826    0.0874 B   0  0  0  0  0  0  0  0  0  0  0  0
   -4.0376    0.4003   -0.7682 B   0  0  0  0  0  0  0  0  0  0  0  0
   -3.3530   -2.4097    0.0544 B   0  0  0  0  0  0  0  0  0  0  0  0
   -2.6679    0.5146   -0.0296 B   0  0  0  0  0  0  0  0  0  0  0  0
   -4.1618    0.5051    1.0161 B   0  0  0  0  0  0  0  0  0  0  0  0
   -4.8583    1.3207    2.2014 B   0  0  0  0  0  0  0  0  0  0  0  0
   -4.3907    2.7698    2.8241 B   0  0  0  0  0  0  0  0  0  0  0  0
   -2.6455    0.4132    1.6270 B   0  0  0  0  0  0  0  0  0  0  0  0
   -3.0745    2.6999    3.7829 B   0  0  0  0  0  0  0  0  0  0  0  0
   -2.2006   -3.5985   -0.0804 B   0  0  0  0  0  0  0  0  0  0  0  0
   -1.7666   -2.0673   -0.0354 B   0  0  0  0  0  0  0  0  0  0  0  0
   -1.4808   -0.5239    0.4715 B   0  0  0  0  0  0  0  0  0  0  0  0
   -0.5697   -3.1520    0.0293 B   0  0  0  0  0  0  0  0  0  0  0  0
   -0.0532   -0.3307    1.2391 B   0  0  0  0  0  0  0  0  0  0  0  0
   -1.3504   -0.3209    2.2821 B   0  0  0  0  0  0  0  0  0  0  0  0
   -1.6200    1.3025    2.5612 B   0  0  0  0  0  0  0  0  0  0  0  0
   -1.6654    2.8173    3.0320 B   0  0  0  0  0  0  0  0  0  0  0  0
   -0.1451    0.5054    2.8451 B   0  0  0  0  0  0  0  0  0  0  0  0
   -0.4303    3.8736    3.0186 B   0  0  0  0  0  0  0  0  0  0  0  0
    0.7314   -4.1978    0.1293 B   0  0  0  0  0  0  0  0  0  0  0  0
    0.9818   -2.6398    0.4199 B   0  0  0  0  0  0  0  0  0  0  0  0
    1.3484   -1.1730    0.9357 B   0  0  0  0  0  0  0  0  0  0  0  0
    2.0729   -3.7555    0.9847 B   0  0  0  0  0  0  0  0  0  0  0  0
    2.7411   -0.6387    1.5620 B   0  0  0  0  0  0  0  0  0  0  0  0
    1.3580    0.1035    2.0225 B   0  0  0  0  0  0  0  0  0  0  0  0
    1.2485    1.3428    3.1826 B   0  0  0  0  0  0  0  0  0  0  0  0
    0.7913    2.8729    3.0290 B   0  0  0  0  0  0  0  0  0  0  0  0
    2.6608    1.0946    2.3188 B   0  0  0  0  0  0  0  0  0  0  0  0
    1.5859    2.6951    1.5639 B   0  0  0  0  0  0  0  0  0  0  0  0
    2.9379   -4.6322    2.1203 B   0  0  0  0  0  0  0  0  0  0  0  0
    3.4924   -3.2024    1.5686 B   0  0  0  0  0  0  0  0  0  0  0  0
    4.0503   -1.6887    1.6103 B   0  0  0  0  0  0  0  0  0  0  0  0
    4.1546   -3.8615    2.8378 B   0  0  0  0  0  0  0  0  0  0  0  0
    5.5006   -0.8850    1.5012 B   0  0  0  0  0  0  0  0  0  0  0  0
    4.2183   -0.1176    2.1400 B   0  0  0  0  0  0  0  0  0  0  0  0
    4.2556    1.6478    2.4604 B   0  0  0  0  0  0  0  0  0  0  0  0
    3.1941    2.6616    1.6567 B   0  0  0  0  0  0  0  0  0  0  0  0
    5.6084    0.7125    2.2654 B   0  0  0  0  0  0  0  0  0  0  0  0
    4.6952    3.0131    1.7565 B   0  0  0  0  0  0  0  0  0  0  0  0
   -5.4724   -3.1194    1.3160 H   0  0  0  0  0  0  0  0  0  0  0  0
   -5.6155   -1.5940   -0.0566 H   0  0  0  0  0  0  0  0  0  0  0  0
   -4.6984    0.8405   -1.6403 H   0  0  0  0  0  0  0  0  0  0  0  0
   -5.7172    0.7864    2.8267 H   0  0  0  0  0  0  0  0  0  0  0  0
   -5.0549    3.7334    2.6713 H   0  0  0  0  0  0  0  0  0  0  0  0
   -3.2307    2.4030    4.9166 H   0  0  0  0  0  0  0  0  0  0  0  0
   -2.4788   -4.7210   -0.2678 H   0  0  0  0  0  0  0  0  0  0  0  0
   -0.4781    5.0401    2.8651 H   0  0  0  0  0  0  0  0  0  0  0  0
    0.6597   -5.2587   -0.3631 H   0  0  0  0  0  0  0  0  0  0  0  0
    1.0033    2.6179    0.5346 H   0  0  0  0  0  0  0  0  0  0  0  0
    2.6096   -5.7173    2.4162 H   0  0  0  0  0  0  0  0  0  0  0  0
    4.9457   -3.8727    3.6928 H   0  0  0  0  0  0  0  0  0  0  0  0
    6.5396   -1.3166    1.1766 H   0  0  0  0  0  0  0  0  0  0  0  0
    6.6840    0.9689    2.6542 H   0  0  0  0  0  0  0  0  0  0  0  0
    5.6145    3.7058    1.5606 H   0  0  0  0  0  0  0  0  0  0  0  0
  1  2  1  0  0  0  0
  2  3  1  0  0  0  0
  3  4  4  0  0  0  0
  4  5  4  0  0  0  0
  5  6  4  0  0  0  0
  6  7  4  0  0  0  0
  3  8  4  0  0  0  0
  7  8  4  0  0  0  0
  8  9  1  0  0  0  0
  9 10  1  0  0  0  0
  6 11  1  0  0  0  0
 11 12  2  0  0  0  0
 11 13  1  0  0  0  0
 13 14  1  0  0  0  0
 14 15  1  0  0  0  0
 15 16  1  0  0  0  0
 16 17  1  0  0  0  0
 17 18  1  0  0  0  0
 18 19  1  0  0  0  0
 19 20  1  0  0  0  0
 20 21  4  0  0  0  0
 21 22  4  0  0  0  0
 22 23  4  0  0  0  0
 23 24  4  0  0  0  0
 20 25  4  0  0  0  0
 24 25  4  0  0  0  0
 18 26  1  0  0  0  0
 15 27  1  0  0  0  0
 26 27  1  0  0  0  0
  5 28  1  0  0  0  0
 13 28  1  0  0  0  0
  1 29  1  0  0  0  0
  1 30  1  0  0  0  0
  1 31  1  0  0  0  0
  4 32  1  0  0  0  0
  7 33  1  0  0  0  0
 10 34  1  0  0  0  0
 10 35  1  0  0  0  0
 10 36  1  0  0  0  0
 13 37  1  0  0  0  0
 14 38  1  0  0  0  0
 14 39  1  0  0  0  0
 15 40  1  0  0  0  0
 16 41  1  0  0  0  0
 16 42  1  0  0  0  0
 17 43  1  0  0  0  0
 17 44  1  0  0  0  0
 19 45  1  0  0  0  0
 19 46  1  0  0  0  0
 21 47  1  0  0  0  0
 22 48  1  0  0  0  0
 23 49  1  0  0  0  0
 24 50  1  0  0  0  0
 25 51  1  0  0  0  0
 26 52  1  0  0  0  0
 26 53  1  0  0  0  0
 27 54  1  0  0  0  0
 27 55  1  0  0  0  0
 28 56  1  0  0  0  0
 28 57  1  0  0  0  0
 58 59  1  0  0  0  0
 59 60  1  0  0  0  0
 58 61  1  0  0  0  0
 59 61  1  0  0  0  0
 60 62  1  0  0  0  0
 59 63  1  0  0  0  0
 60 63  1  0  0  0  0
 62 63  1  0  0  0  0
 63 64  1  0  0  0  0
 64 65  1  0  0  0  0
 62 66  1  0  0  0  0
 63 66  1  0  0  0  0
 65 67  1  0  0  0  0
 61 68  1  0  0  0  0
 61 69  1  0  0  0  0
 68 69  1  0  0  0  0
 62 70  1  0  0  0  0
 66 70  1  0  0  0  0
 69 70  1  0  0  0  0
 68 71  1  0  0  0  0
 69 71  1  0  0  0  0
 70 72  1  0  0  0  0
 66 73  1  0  0  0  0
 70 73  1  0  0  0  0
 72 73  1  0  0  0  0
 66 74  1  0  0  0  0
 73 74  1  0  0  0  0
 67 75  1  0  0  0  0
 74 75  1  0  0  0  0
 72 76  1  0  0  0  0
 73 76  1  0  0  0  0
 74 76  1  0  0  0  0
 75 77  1  0  0  0  0
 71 78  1  0  0  0  0
 71 79  1  0  0  0  0
 78 79  1  0  0  0  0
 72 80  1  0  0  0  0
 79 80  1  0  0  0  0
 78 81  1  0  0  0  0
 79 81  1  0  0  0  0
 80 82  1  0  0  0  0
 72 83  1  0  0  0  0
 76 83  1  0  0  0  0
 80 83  1  0  0  0  0
 82 83  1  0  0  0  0
 76 84  1  0  0  0  0
 83 84  1  0  0  0  0
 77 85  1  0  0  0  0
 84 85  1  0  0  0  0
 82 86  1  0  0  0  0
 83 86  1  0  0  0  0
 84 86  1  0  0  0  0
 85 87  1  0  0  0  0
 81 88  1  0  0  0  0
 81 89  1  0  0  0  0
 88 89  1  0  0  0  0
 82 90  1  0  0  0  0
 89 90  1  0  0  0  0
 88 91  1  0  0  0  0
 89 91  1  0  0  0  0
 90 92  1  0  0  0  0
 82 93  1  0  0  0  0
 86 93  1  0  0  0  0
 90 93  1  0  0  0  0
 92 93  1  0  0  0  0
 86 94  1  0  0  0  0
 93 94  1  0  0  0  0
 86 95  1  0  0  0  0
 87 95  1  0  0  0  0
 94 95  1  0  0  0  0
 92 96  1  0  0  0  0
 93 96  1  0  0  0  0
 94 96  1  0  0  0  0
 94 97  1  0  0  0  0
 95 97  1  0  0  0  0
 58 98  1  0  0  0  0
 58 99  1  0  0  0  0
 59 99  1  0  0  0  0
 60100  1  0  0  0  0
 64101  1  0  0  0  0
 65102  1  0  0  0  0
 67103  1  0  0  0  0
 68104  1  0  0  0  0
 77105  1  0  0  0  0
 78106  1  0  0  0  0
 87107  1  0  0  0  0
 88108  1  0  0  0  0
 91109  1  0  0  0  0
 92110  1  0  0  0  0
 96111  1  0  0  0  0
 97112  1  0  0  0  0
M  END
