 xtb: 6.7.1pre (5071a88)
          08312621153D

117173  0     0  0            999 V2000
    7.0453   -2.3530    6.7849 C   0  0  0  0  0  0  0  0  0  0  0  0
    7.1639   -1.1012    6.1250 O   0  0  0  0  0  0  0  0  0  0  0  0
    6.0133   -0.5098    5.6609 C   0  0  0  0  0  0  0  0  0  0  0  0
    4.7304   -1.0612    5.8106 C   0  0  0  0  0  0  0  0  0  0  0  0
    3.6417   -0.3708    5.2994 C   0  0  0  0  0  0  0  0  0  0  0  0
    3.8347    0.8404    4.6564 C   0  0  0  0  0  0  0  0  0  0  0  0
    5.0792    1.4200    4.4887 C   0  0  0  0  0  0  0  0  0  0  0  0
    6.1871    0.7368    4.9973 C   0  0  0  0  0  0  0  0  0  0  0  0
    7.4813    1.1897    4.9044 O   0  0  0  0  0  0  0  0  0  0  0  0
    7.6970    2.4317    4.2483 C   0  0  0  0  0  0  0  0  0  0  0  0
    2.5408    1.3448    4.2215 C   0  0  0  0  0  0  0  0  0  0  0  0
    2.3959    2.4059    3.6396 O   0  0  0  0  0  0  0  0  0  0  0  0
    1.4503    0.3499    4.5899 C   0  0  0  0  0  0  0  0  0  0  0  0
    0.3435    1.0333    5.4039 C   0  0  0  0  0  0  0  0  0  0  0  0
   -1.0279    0.3317    5.3336 C   0  0  0  0  0  0  0  0  0  0  0  0
   -1.0466   -1.0792    5.9254 C   0  0  0  0  0  0  0  0  0  0  0  0
   -2.4366   -1.7280    5.8105 C   0  0  0  0  0  0  0  0  0  0  0  0
   -3.5475   -0.7666    5.7901 N   0  0  0  0  0  0  0  0  0  0  0  0
   -4.8112   -1.4288    6.1506 C   0  0  0  0  0  0  0  0  0  0  0  0
   -6.0411   -0.6080    5.8220 C   0  0  0  0  0  0  0  0  0  0  0  0
   -7.0165   -0.3621    6.7991 C   0  0  0  0  0  0  0  0  0  0  0  0
   -8.1598    0.3774    6.4891 C   0  0  0  0  0  0  0  0  0  0  0  0
   -8.3426    0.8742    5.1997 C   0  0  0  0  0  0  0  0  0  0  0  0
   -7.3839    0.6317    4.2181 C   0  0  0  0  0  0  0  0  0  0  0  0
   -6.2413   -0.1079    4.5262 C   0  0  0  0  0  0  0  0  0  0  0  0
   -3.2574    0.3940    6.6304 C   0  0  0  0  0  0  0  0  0  0  0  0
   -2.0977    1.2004    6.0320 C   0  0  0  0  0  0  0  0  0  0  0  0
    2.2005   -0.7670    5.3570 C   0  0  0  0  0  0  0  0  0  0  0  0
    6.6349   -3.1157    6.1150 H   0  0  0  0  0  0  0  0  0  0  0  0
    6.4471   -2.2631    7.6975 H   0  0  0  0  0  0  0  0  0  0  0  0
    8.0499   -2.6738    7.0769 H   0  0  0  0  0  0  0  0  0  0  0  0
    4.5644   -2.0067    6.3137 H   0  0  0  0  0  0  0  0  0  0  0  0
    5.1501    2.3709    3.9748 H   0  0  0  0  0  0  0  0  0  0  0  0
    7.3845    2.3842    3.2000 H   0  0  0  0  0  0  0  0  0  0  0  0
    7.1947    3.2494    4.7756 H   0  0  0  0  0  0  0  0  0  0  0  0
    8.7718    2.6364    4.2655 H   0  0  0  0  0  0  0  0  0  0  0  0
    1.0511   -0.0504    3.6495 H   0  0  0  0  0  0  0  0  0  0  0  0
    0.6580    1.1402    6.4503 H   0  0  0  0  0  0  0  0  0  0  0  0
    0.2072    2.0575    5.0310 H   0  0  0  0  0  0  0  0  0  0  0  0
   -1.3064    0.2521    4.2730 H   0  0  0  0  0  0  0  0  0  0  0  0
   -0.3258   -1.7288    5.4200 H   0  0  0  0  0  0  0  0  0  0  0  0
   -0.7531   -1.0327    6.9822 H   0  0  0  0  0  0  0  0  0  0  0  0
   -2.5391   -2.4426    6.6380 H   0  0  0  0  0  0  0  0  0  0  0  0
   -2.4779   -2.3109    4.8821 H   0  0  0  0  0  0  0  0  0  0  0  0
   -4.8064   -1.7017    7.2143 H   0  0  0  0  0  0  0  0  0  0  0  0
   -4.9113   -2.3679    5.5892 H   0  0  0  0  0  0  0  0  0  0  0  0
   -6.8913   -0.7428    7.8098 H   0  0  0  0  0  0  0  0  0  0  0  0
   -8.9083    0.5660    7.2540 H   0  0  0  0  0  0  0  0  0  0  0  0
   -9.2318    1.4508    4.9597 H   0  0  0  0  0  0  0  0  0  0  0  0
   -7.5231    1.0192    3.2126 H   0  0  0  0  0  0  0  0  0  0  0  0
   -5.4948   -0.2885    3.7552 H   0  0  0  0  0  0  0  0  0  0  0  0
   -3.0110    0.0795    7.6534 H   0  0  0  0  0  0  0  0  0  0  0  0
   -4.1184    1.0676    6.7104 H   0  0  0  0  0  0  0  0  0  0  0  0
   -2.4893    1.9171    5.2982 H   0  0  0  0  0  0  0  0  0  0  0  0
   -1.6499    1.7977    6.8363 H   0  0  0  0  0  0  0  0  0  0  0  0
    1.8756   -0.8475    6.3994 H   0  0  0  0  0  0  0  0  0  0  0  0
    2.0538   -1.7335    4.8629 H   0  0  0  0  0  0  0  0  0  0  0  0
   -6.3511   -2.8545   -0.3396 B   0  0  0  0  0  0  0  0  0  0  0  0
   -3.8632   -3.4276    0.8712 B   0  0  0  0  0  0  0  0  0  0  0  0
   -1.0552   -4.1651    1.9793 B   0  0  0  0  0  0  0  0  0  0  0  0
    1.6853   -4.2318    1.3549 B   0  0  0  0  0  0  0  0  0  0  0  0
    2.9703   -3.6923    0.6219 B   0  0  0  0  0  0  0  0  0  0  0  0
    5.9076   -3.8486   -0.3800 B   0  0  0  0  0  0  0  0  0  0  0  0
   -4.7612   -2.3307   -0.4078 B   0  0  0  0  0  0  0  0  0  0  0  0
   -2.6199   -2.2111    0.8442 B   0  0  0  0  0  0  0  0  0  0  0  0
   -1.2327   -2.3911    1.7792 B   0  0  0  0  0  0  0  0  0  0  0  0
    0.2814   -3.1446    1.2586 B   0  0  0  0  0  0  0  0  0  0  0  0
    3.1280   -2.1353    0.0337 B   0  0  0  0  0  0  0  0  0  0  0  0
    5.2824   -2.5807   -1.1427 B   0  0  0  0  0  0  0  0  0  0  0  0
   -4.3827   -1.0545   -1.3461 B   0  0  0  0  0  0  0  0  0  0  0  0
   -3.1924   -1.2685   -0.2398 B   0  0  0  0  0  0  0  0  0  0  0  0
   -0.7667   -0.9151    2.1471 B   0  0  0  0  0  0  0  0  0  0  0  0
    0.4341   -1.5098    0.8825 B   0  0  0  0  0  0  0  0  0  0  0  0
    4.2603   -1.2719   -0.6057 B   0  0  0  0  0  0  0  0  0  0  0  0
    6.8452   -2.4756   -0.8065 B   0  0  0  0  0  0  0  0  0  0  0  0
   -5.0072   -0.6437   -2.8496 B   0  0  0  0  0  0  0  0  0  0  0  0
   -3.1952    0.1543   -0.9257 B   0  0  0  0  0  0  0  0  0  0  0  0
   -0.9469    0.6233    2.2104 B   0  0  0  0  0  0  0  0  0  0  0  0
    0.0016   -0.0204    0.9084 B   0  0  0  0  0  0  0  0  0  0  0  0
    4.8754    0.2242   -0.5476 B   0  0  0  0  0  0  0  0  0  0  0  0
    5.8786   -1.0664   -1.1306 B   0  0  0  0  0  0  0  0  0  0  0  0
   -5.7672    0.8535   -2.9176 B   0  0  0  0  0  0  0  0  0  0  0  0
   -2.8971    1.6282   -0.7083 B   0  0  0  0  0  0  0  0  0  0  0  0
   -1.2399    2.1332    2.0889 B   0  0  0  0  0  0  0  0  0  0  0  0
    0.1883    1.5499    1.0540 B   0  0  0  0  0  0  0  0  0  0  0  0
    4.2581    1.5841    0.0647 B   0  0  0  0  0  0  0  0  0  0  0  0
    6.3075    0.4397   -1.6258 B   0  0  0  0  0  0  0  0  0  0  0  0
   -5.7341    1.7554   -1.4938 B   0  0  0  0  0  0  0  0  0  0  0  0
   -3.3469    2.9740   -0.1746 B   0  0  0  0  0  0  0  0  0  0  0  0
   -1.6646    3.6160    1.7973 B   0  0  0  0  0  0  0  0  0  0  0  0
   -0.0590    3.1640    1.3235 B   0  0  0  0  0  0  0  0  0  0  0  0
    2.9656    2.2589    0.6844 B   0  0  0  0  0  0  0  0  0  0  0  0
    5.7919    1.6725   -0.6985 B   0  0  0  0  0  0  0  0  0  0  0  0
   -6.6389    2.8000   -0.8422 B   0  0  0  0  0  0  0  0  0  0  0  0
   -4.4746    3.8873    0.5879 B   0  0  0  0  0  0  0  0  0  0  0  0
   -1.7771    5.1752    1.2154 B   0  0  0  0  0  0  0  0  0  0  0  0
    1.1754    4.4066    1.3290 B   0  0  0  0  0  0  0  0  0  0  0  0
    2.5938    3.9229    0.8796 B   0  0  0  0  0  0  0  0  0  0  0  0
    5.3509    2.9860   -0.0541 B   0  0  0  0  0  0  0  0  0  0  0  0
   -5.3190   -3.6348    0.4165 B   0  0  0  0  0  0  0  0  0  0  0  0
   -2.4877   -3.6329    1.6055 B   0  0  0  0  0  0  0  0  0  0  0  0
    0.3596   -4.7213    1.9063 B   0  0  0  0  0  0  0  0  0  0  0  0
    1.7215   -2.4162    0.7345 B   0  0  0  0  0  0  0  0  0  0  0  0
    4.3387   -3.4800   -0.0729 B   0  0  0  0  0  0  0  0  0  0  0  0
   -5.0953    2.8472   -0.3735 B   0  0  0  0  0  0  0  0  0  0  0  0
   -3.0345    4.3187    0.9326 B   0  0  0  0  0  0  0  0  0  0  0  0
   -0.2869    4.8951    1.4426 B   0  0  0  0  0  0  0  0  0  0  0  0
    1.4616    2.5482    0.9924 B   0  0  0  0  0  0  0  0  0  0  0  0
    4.0784    3.6198    0.5106 B   0  0  0  0  0  0  0  0  0  0  0  0
   -4.5957    0.5913   -1.8415 B   0  0  0  0  0  0  0  0  0  0  0  0
   -7.3684   -2.5027   -0.8103 H   0  0  0  0  0  0  0  0  0  0  0  0
   -4.9591   -1.3760   -3.7739 H   0  0  0  0  0  0  0  0  0  0  0  0
   -6.3246    1.2608   -3.8715 H   0  0  0  0  0  0  0  0  0  0  0  0
   -7.6134    3.4017   -0.5976 H   0  0  0  0  0  0  0  0  0  0  0  0
    6.3612   -4.9354   -0.3602 H   0  0  0  0  0  0  0  0  0  0  0  0
    8.0163   -2.4682   -0.9061 H   0  0  0  0  0  0  0  0  0  0  0  0
    6.9392    0.6146   -2.6128 H   0  0  0  0  0  0  0  0  0  0  0  0
  1  2  1  0  0  0  0
  2  3  1  0  0  0  0
  3  4  4  0  0  0  0
  4  5  4  0  0  0  0
  5  6  4  0  0  0  0
  6  7  4  0  0  0  0
  3  8  4  0  0  0  0
  7  8  4  0  0  0  0
  8  9  1  0  0  0  0
  9 10  1  0  0  0  0
  6 11  1  0  0  0  0
 11 12  2  0  0  0  0
 11 13  1  0  0  0  0
 13 14  1  0  0  0  0
 14 15  1  0  0  0  0
 15 16  1  0  0  0  0
 16 17  1  0  0  0  0
 17 18  1  0  0  0  0
 18 19  1  0  0  0  0
 19 20  1  0  0  0  0
 20 21  4  0  0  0  0
 21 22  4  0  0  0  0
 22 23  4  0  0  0  0
 23 24  4  0  0  0  0
 20 25  4  0  0  0  0
 24 25  4  0  0  0  0
 18 26  1  0  0  0  0
 15 27  1  0  0  0  0
 26 27  1  0  0  0  0
  5 28  1  0  0  0  0
 13 28  1  0  0  0  0
  1 29  1  0  0  0  0
  1 30  1  0  0  0  0
  1 31  1  0  0  0  0
  4 32  1  0  0  0  0
  7 33  1  0  0  0  0
 10 34  1  0  0  0  0
 10 35  1  0  0  0  0
 10 36  1  0  0  0  0
 13 37  1  0  0  0  0
 14 38  1  0  0  0  0
 14 39  1  0  0  0  0
 15 40  1  0  0  0  0
 16 41  1  0  0  0  0
 16 42  1  0  0  0  0
 17 43  1  0  0  0  0
 17 44  1  0  0  0  0
 19 45  1  0  0  0  0
 19 46  1  0  0  0  0
 21 47  1  0  0  0  0
 22 48  1  0  0  0  0
 23 49  1  0  0  0  0
 24 50  1  0  0  0  0
 25 51  1  0  0  0  0
 26 52  1  0  0  0  0
 26 53  1  0  0  0  0
 27 54  1  0  0  0  0
 27 55  1  0  0  0  0
 28 56  1  0  0  0  0
 28 57  1  0  0  0  0
 61 62  1  0  0  0  0
 58 64  1  0  0  0  0
 59 64  1  0  0  0  0
 59 65  1  0  0  0  0
 60 66  1  0  0  0  0
 65 66  1  0  0  0  0
 60 67  1  0  0  0  0
 61 67  1  0  0  0  0
 66 67  1  0  0  0  0
 62 68  1  0  0  0  0
 63 69  1  0  0  0  0
 64 70  1  0  0  0  0
 64 71  1  0  0  0  0
 65 71  1  0  0  0  0
 70 71  1  0  0  0  0
 66 72  1  0  0  0  0
 67 73  1  0  0  0  0
 72 73  1  0  0  0  0
 68 74  1  0  0  0  0
 69 74  1  0  0  0  0
 63 75  1  0  0  0  0
 69 75  1  0  0  0  0
 70 76  1  0  0  0  0
 70 77  1  0  0  0  0
 71 77  1  0  0  0  0
 72 78  1  0  0  0  0
 72 79  1  0  0  0  0
 73 79  1  0  0  0  0
 78 79  1  0  0  0  0
 74 80  1  0  0  0  0
 69 81  1  0  0  0  0
 74 81  1  0  0  0  0
 75 81  1  0  0  0  0
 80 81  1  0  0  0  0
 76 82  1  0  0  0  0
 77 83  1  0  0  0  0
 78 84  1  0  0  0  0
 78 85  1  0  0  0  0
 79 85  1  0  0  0  0
 84 85  1  0  0  0  0
 80 86  1  0  0  0  0
 80 87  1  0  0  0  0
 81 87  1  0  0  0  0
 82 88  1  0  0  0  0
 83 89  2  0  0  0  0
 84 90  1  0  0  0  0
 84 91  1  0  0  0  0
 85 91  1  0  0  0  0
 90 91  1  0  0  0  0
 86 92  1  0  0  0  0
 80 93  1  0  0  0  0
 86 93  1  0  0  0  0
 87 93  1  0  0  0  0
 88 94  1  0  0  0  0
 89 95  1  0  0  0  0
 90 96  1  0  0  0  0
 91 97  1  0  0  0  0
 92 98  1  0  0  0  0
 97 98  1  0  0  0  0
 86 99  1  0  0  0  0
 93 99  1  0  0  0  0
 58100  2  0  0  0  0
 59100  1  0  0  0  0
 64100  1  0  0  0  0
 59101  1  0  0  0  0
 60101  1  0  0  0  0
 65101  1  0  0  0  0
 66101  1  0  0  0  0
 60102  1  0  0  0  0
 61102  1  0  0  0  0
 67102  1  0  0  0  0
 61103  1  0  0  0  0
 62103  1  0  0  0  0
 67103  1  0  0  0  0
 68103  1  0  0  0  0
 73103  1  0  0  0  0
 62104  1  0  0  0  0
 63104  1  0  0  0  0
 68104  1  0  0  0  0
 69104  1  0  0  0  0
 88105  1  0  0  0  0
 89105  1  0  0  0  0
 94105  1  0  0  0  0
 95105  1  0  0  0  0
 89106  1  0  0  0  0
 90106  1  0  0  0  0
 95106  1  0  0  0  0
 96106  1  0  0  0  0
 90107  1  0  0  0  0
 91107  1  0  0  0  0
 96107  1  0  0  0  0
 97107  1  0  0  0  0
 85108  1  0  0  0  0
 91108  1  0  0  0  0
 92108  1  0  0  0  0
 97108  1  0  0  0  0
 98108  1  0  0  0  0
 86109  1  0  0  0  0
 92109  1  0  0  0  0
 98109  1  0  0  0  0
 99109  1  0  0  0  0
 70110  1  0  0  0  0
 76110  1  0  0  0  0
 77110  1  0  0  0  0
 82110  1  0  0  0  0
 88110  1  0  0  0  0
 58111  1  0  0  0  0
 76112  1  0  0  0  0
 82113  1  0  0  0  0
 94114  1  0  0  0  0
 63115  1  0  0  0  0
 75116  1  0  0  0  0
 87117  1  0  0  0  0
M  END
