 xtb: 6.7.1pre (5071a88)
          09012616383D

117160  0     0  0            999 V2000
   -2.1505   -7.0114    8.5368 C   0  0  0  0  0  0  0  0  0  0  0  0
   -0.9200   -7.0683    7.8615 O   0  0  0  0  0  0  0  0  0  0  0  0
   -0.4211   -5.9134    7.3361 C   0  0  0  0  0  0  0  0  0  0  0  0
   -0.9991   -4.6592    7.5052 C   0  0  0  0  0  0  0  0  0  0  0  0
   -0.4132   -3.5584    6.9174 C   0  0  0  0  0  0  0  0  0  0  0  0
    0.7423   -3.6884    6.1466 C   0  0  0  0  0  0  0  0  0  0  0  0
    1.3418   -4.9430    5.9806 C   0  0  0  0  0  0  0  0  0  0  0  0
    0.7716   -6.0485    6.5777 C   0  0  0  0  0  0  0  0  0  0  0  0
    1.2648   -7.3191    6.4987 O   0  0  0  0  0  0  0  0  0  0  0  0
    2.4890   -7.5087    5.8351 C   0  0  0  0  0  0  0  0  0  0  0  0
    1.1413   -2.4068    5.6103 C   0  0  0  0  0  0  0  0  0  0  0  0
    2.0772   -2.1403    4.8695 O   0  0  0  0  0  0  0  0  0  0  0  0
    0.1454   -1.3517    6.1350 C   0  0  0  0  0  0  0  0  0  0  0  0
    0.9172   -0.2539    6.8751 C   0  0  0  0  0  0  0  0  0  0  0  0
    0.2049    1.0988    6.9705 C   0  0  0  0  0  0  0  0  0  0  0  0
   -1.0939    1.0481    7.7705 C   0  0  0  0  0  0  0  0  0  0  0  0
   -1.8123    2.4008    7.7044 C   0  0  0  0  0  0  0  0  0  0  0  0
   -0.8757    3.4998    7.5400 N   0  0  0  0  0  0  0  0  0  0  0  0
   -1.4994    4.7711    7.8586 C   0  0  0  0  0  0  0  0  0  0  0  0
   -0.5995    5.9275    7.5216 C   0  0  0  0  0  0  0  0  0  0  0  0
   -0.3749    6.9471    8.4354 C   0  0  0  0  0  0  0  0  0  0  0  0
    0.4669    8.0002    8.1219 C   0  0  0  0  0  0  0  0  0  0  0  0
    1.0969    8.0392    6.8914 C   0  0  0  0  0  0  0  0  0  0  0  0
    0.8747    7.0270    5.9715 C   0  0  0  0  0  0  0  0  0  0  0  0
    0.0290    5.9794    6.2832 C   0  0  0  0  0  0  0  0  0  0  0  0
    0.3393    3.2580    8.2941 C   0  0  0  0  0  0  0  0  0  0  0  0
    1.1362    2.1313    7.6269 C   0  0  0  0  0  0  0  0  0  0  0  0
   -0.8624   -2.1315    6.9959 C   0  0  0  0  0  0  0  0  0  0  0  0
   -2.9439   -6.6133    7.8955 H   0  0  0  0  0  0  0  0  0  0  0  0
   -2.0859   -6.4083    9.4489 H   0  0  0  0  0  0  0  0  0  0  0  0
   -2.3886   -8.0403    8.8058 H   0  0  0  0  0  0  0  0  0  0  0  0
   -1.8961   -4.5391    8.0918 H   0  0  0  0  0  0  0  0  0  0  0  0
    2.2388   -5.0123    5.3890 H   0  0  0  0  0  0  0  0  0  0  0  0
    2.4145   -7.2636    4.7708 H   0  0  0  0  0  0  0  0  0  0  0  0
    3.2881   -6.9134    6.2887 H   0  0  0  0  0  0  0  0  0  0  0  0
    2.7207   -8.5675    5.9451 H   0  0  0  0  0  0  0  0  0  0  0  0
   -0.3451   -0.9019    5.2662 H   0  0  0  0  0  0  0  0  0  0  0  0
    1.1627   -0.6103    7.8794 H   0  0  0  0  0  0  0  0  0  0  0  0
    1.8593   -0.1003    6.3413 H   0  0  0  0  0  0  0  0  0  0  0  0
   -0.0385    1.4409    5.9601 H   0  0  0  0  0  0  0  0  0  0  0  0
   -1.7603    0.2819    7.3805 H   0  0  0  0  0  0  0  0  0  0  0  0
   -0.8601    0.7963    8.8072 H   0  0  0  0  0  0  0  0  0  0  0  0
   -2.4270    2.5286    8.6181 H   0  0  0  0  0  0  0  0  0  0  0  0
   -2.4942    2.4257    6.8433 H   0  0  0  0  0  0  0  0  0  0  0  0
   -1.7937    4.8267    8.9245 H   0  0  0  0  0  0  0  0  0  0  0  0
   -2.4165    4.8417    7.2597 H   0  0  0  0  0  0  0  0  0  0  0  0
   -0.8599    6.9147    9.4008 H   0  0  0  0  0  0  0  0  0  0  0  0
    0.6363    8.7852    8.8446 H   0  0  0  0  0  0  0  0  0  0  0  0
    1.7621    8.8547    6.6507 H   0  0  0  0  0  0  0  0  0  0  0  0
    1.3650    7.0556    5.0102 H   0  0  0  0  0  0  0  0  0  0  0  0
   -0.1425    5.1802    5.5792 H   0  0  0  0  0  0  0  0  0  0  0  0
    0.1112    3.0031    9.3439 H   0  0  0  0  0  0  0  0  0  0  0  0
    0.9318    4.1756    8.3016 H   0  0  0  0  0  0  0  0  0  0  0  0
    1.8014    2.5487    6.8709 H   0  0  0  0  0  0  0  0  0  0  0  0
    1.7558    1.6437    8.3819 H   0  0  0  0  0  0  0  0  0  0  0  0
   -0.8453   -1.7953    8.0341 H   0  0  0  0  0  0  0  0  0  0  0  0
   -1.8867   -2.0286    6.6304 H   0  0  0  0  0  0  0  0  0  0  0  0
   -6.9016   -4.6585    0.6046 B   0  0  0  0  0  0  0  0  0  0  0  0
   -5.1168   -2.2341    0.3992 B   0  0  0  0  0  0  0  0  0  0  0  0
   -3.5963   -2.2098    0.2426 B   0  0  0  0  0  0  0  0  0  0  0  0
    0.9960   -2.8982    0.3096 B   0  0  0  0  0  0  0  0  0  0  0  0
    2.4785   -3.0486    0.0021 B   0  0  0  0  0  0  0  0  0  0  0  0
    5.2707   -3.8126   -0.5845 B   0  0  0  0  0  0  0  0  0  0  0  0
    6.2131   -4.7481   -1.3056 B   0  0  0  0  0  0  0  0  0  0  0  0
   -6.4271   -3.1669    0.4399 B   0  0  0  0  0  0  0  0  0  0  0  0
   -6.7638   -1.6513    0.3351 B   0  0  0  0  0  0  0  0  0  0  0  0
   -2.0674   -2.3489    0.3943 B   0  0  0  0  0  0  0  0  0  0  0  0
   -0.4974   -2.4919    0.3998 B   0  0  0  0  0  0  0  0  0  0  0  0
    4.0167   -2.9035   -0.0547 B   0  0  0  0  0  0  0  0  0  0  0  0
    5.7388   -2.3006   -0.1081 B   0  0  0  0  0  0  0  0  0  0  0  0
    6.7909   -3.1931   -0.9954 B   0  0  0  0  0  0  0  0  0  0  0  0
   -7.6416   -0.2637    0.3370 B   0  0  0  0  0  0  0  0  0  0  0  0
   -6.0306   -0.1710    0.1166 B   0  0  0  0  0  0  0  0  0  0  0  0
   -4.4280   -0.5696    0.1733 B   0  0  0  0  0  0  0  0  0  0  0  0
   -2.7305   -0.6945    0.2437 B   0  0  0  0  0  0  0  0  0  0  0  0
   -1.0630   -0.9249    0.6568 B   0  0  0  0  0  0  0  0  0  0  0  0
    0.4969   -1.1955    0.8558 B   0  0  0  0  0  0  0  0  0  0  0  0
    3.1033   -1.4929    0.1176 B   0  0  0  0  0  0  0  0  0  0  0  0
    4.6797   -1.1723    0.5609 B   0  0  0  0  0  0  0  0  0  0  0  0
    6.2435   -0.8014    0.4364 B   0  0  0  0  0  0  0  0  0  0  0  0
    7.6933   -0.3621    1.1267 B   0  0  0  0  0  0  0  0  0  0  0  0
   -6.8842    1.1911    0.1139 B   0  0  0  0  0  0  0  0  0  0  0  0
   -3.4057    0.7461   -0.0073 B   0  0  0  0  0  0  0  0  0  0  0  0
   -1.6545    0.5123    0.0878 B   0  0  0  0  0  0  0  0  0  0  0  0
    1.8394   -0.4027    0.4601 B   0  0  0  0  0  0  0  0  0  0  0  0
    3.5664   -0.1662    0.9749 B   0  0  0  0  0  0  0  0  0  0  0  0
    6.9474    0.5904    0.0214 B   0  0  0  0  0  0  0  0  0  0  0  0
    8.3253    1.0305    0.6483 B   0  0  0  0  0  0  0  0  0  0  0  0
   -7.5263    2.7904    0.3692 B   0  0  0  0  0  0  0  0  0  0  0  0
   -6.1507    2.4943   -0.3757 B   0  0  0  0  0  0  0  0  0  0  0  0
   -3.5766    2.2878   -0.3430 B   0  0  0  0  0  0  0  0  0  0  0  0
   -0.8836    1.8030   -0.4135 B   0  0  0  0  0  0  0  0  0  0  0  0
    1.6354    1.0189   -0.2724 B   0  0  0  0  0  0  0  0  0  0  0  0
    2.9898    1.2891    0.7207 B   0  0  0  0  0  0  0  0  0  0  0  0
    6.3216    1.8475   -0.7663 B   0  0  0  0  0  0  0  0  0  0  0  0
   -6.4836    4.0287   -0.1858 B   0  0  0  0  0  0  0  0  0  0  0  0
   -4.8662    3.4398   -0.5260 B   0  0  0  0  0  0  0  0  0  0  0  0
   -3.4053    3.8436   -0.6891 B   0  0  0  0  0  0  0  0  0  0  0  0
   -1.9995    3.2136   -0.6988 B   0  0  0  0  0  0  0  0  0  0  0  0
   -0.4655    3.2844   -0.8192 B   0  0  0  0  0  0  0  0  0  0  0  0
    0.7378    2.3394   -0.6286 B   0  0  0  0  0  0  0  0  0  0  0  0
    2.3428    2.4839   -0.2802 B   0  0  0  0  0  0  0  0  0  0  0  0
    3.8146    2.6072    0.1312 B   0  0  0  0  0  0  0  0  0  0  0  0
    5.3668    2.8539    0.0570 B   0  0  0  0  0  0  0  0  0  0  0  0
    6.0737    4.0519    0.8433 B   0  0  0  0  0  0  0  0  0  0  0  0
    6.1918    5.1399    0.3980 H   0  0  0  0  0  0  0  0  0  0  0  0
    8.2829   -1.1207    1.7960 H   0  0  0  0  0  0  0  0  0  0  0  0
    6.5179    1.9709   -1.9275 H   0  0  0  0  0  0  0  0  0  0  0  0
   -6.9935   -5.4128   -0.3077 H   0  0  0  0  0  0  0  0  0  0  0  0
   -6.7349    5.1709   -0.2596 H   0  0  0  0  0  0  0  0  0  0  0  0
    9.2055    1.7946    0.7175 H   0  0  0  0  0  0  0  0  0  0  0  0
   -8.8143   -0.3326    0.3640 H   0  0  0  0  0  0  0  0  0  0  0  0
    6.6202   -5.7197   -1.8080 H   0  0  0  0  0  0  0  0  0  0  0  0
   -8.5594    2.9851    0.8856 H   0  0  0  0  0  0  0  0  0  0  0  0
    7.8690   -2.8472   -1.3157 H   0  0  0  0  0  0  0  0  0  0  0  0
    6.4933    3.9258    1.9394 H   0  0  0  0  0  0  0  0  0  0  0  0
   -7.2467   -5.1344    1.6338 H   0  0  0  0  0  0  0  0  0  0  0  0
  1  2  1  0  0  0  0
  2  3  1  0  0  0  0
  3  4  4  0  0  0  0
  4  5  4  0  0  0  0
  5  6  4  0  0  0  0
  6  7  4  0  0  0  0
  3  8  4  0  0  0  0
  7  8  4  0  0  0  0
  8  9  1  0  0  0  0
  9 10  1  0  0  0  0
  6 11  1  0  0  0  0
 11 12  2  0  0  0  0
 11 13  1  0  0  0  0
 13 14  1  0  0  0  0
 14 15  1  0  0  0  0
 15 16  1  0  0  0  0
 16 17  1  0  0  0  0
 17 18  1  0  0  0  0
 18 19  1  0  0  0  0
 19 20  1  0  0  0  0
 20 21  4  0  0  0  0
 21 22  4  0  0  0  0
 22 23  4  0  0  0  0
 23 24  4  0  0  0  0
 20 25  4  0  0  0  0
 24 25  4  0  0  0  0
 18 26  1  0  0  0  0
 15 27  1  0  0  0  0
 26 27  1  0  0  0  0
  5 28  1  0  0  0  0
 13 28  1  0  0  0  0
  1 29  1  0  0  0  0
  1 30  1  0  0  0  0
  1 31  1  0  0  0  0
  4 32  1  0  0  0  0
  7 33  1  0  0  0  0
 10 34  1  0  0  0  0
 10 35  1  0  0  0  0
 10 36  1  0  0  0  0
 13 37  1  0  0  0  0
 14 38  1  0  0  0  0
 14 39  1  0  0  0  0
 15 40  1  0  0  0  0
 16 41  1  0  0  0  0
 16 42  1  0  0  0  0
 17 43  1  0  0  0  0
 17 44  1  0  0  0  0
 19 45  1  0  0  0  0
 19 46  1  0  0  0  0
 21 47  1  0  0  0  0
 22 48  1  0  0  0  0
 23 49  1  0  0  0  0
 24 50  1  0  0  0  0
 25 51  1  0  0  0  0
 26 52  1  0  0  0  0
 26 53  1  0  0  0  0
 27 54  1  0  0  0  0
 27 55  1  0  0  0  0
 28 56  1  0  0  0  0
 28 57  1  0  0  0  0
 59 60  1  0  0  0  0
 61 62  2  0  0  0  0
 63 64  2  0  0  0  0
 58 65  1  0  0  0  0
 59 65  1  0  0  0  0
 59 66  1  0  0  0  0
 65 66  1  0  0  0  0
 60 67  1  0  0  0  0
 61 68  1  0  0  0  0
 67 68  1  0  0  0  0
 62 69  1  0  0  0  0
 63 69  1  0  0  0  0
 63 70  1  0  0  0  0
 69 70  1  0  0  0  0
 63 71  1  0  0  0  0
 64 71  1  0  0  0  0
 70 71  1  0  0  0  0
 66 72  1  0  0  0  0
 66 73  1  0  0  0  0
 72 73  1  0  0  0  0
 59 74  1  0  0  0  0
 60 74  1  0  0  0  0
 73 74  1  0  0  0  0
 60 75  1  0  0  0  0
 67 75  1  0  0  0  0
 74 75  1  0  0  0  0
 67 76  1  0  0  0  0
 68 76  1  0  0  0  0
 75 76  1  0  0  0  0
 61 77  1  0  0  0  0
 68 77  1  0  0  0  0
 76 77  1  0  0  0  0
 62 78  1  0  0  0  0
 69 78  1  0  0  0  0
 69 79  1  0  0  0  0
 70 79  1  0  0  0  0
 78 79  1  0  0  0  0
 70 80  1  0  0  0  0
 79 80  1  0  0  0  0
 80 81  1  0  0  0  0
 72 82  1  0  0  0  0
 73 82  1  0  0  0  0
 74 83  1  0  0  0  0
 75 83  1  0  0  0  0
 75 84  1  0  0  0  0
 76 84  1  0  0  0  0
 83 84  1  0  0  0  0
 77 85  1  0  0  0  0
 78 85  1  0  0  0  0
 78 86  1  0  0  0  0
 79 86  1  0  0  0  0
 85 86  1  0  0  0  0
 80 87  1  0  0  0  0
 81 87  1  0  0  0  0
 81 88  1  0  0  0  0
 87 88  1  0  0  0  0
 82 89  1  0  0  0  0
 82 90  1  0  0  0  0
 89 90  1  0  0  0  0
 83 91  1  0  0  0  0
 84 92  1  0  0  0  0
 85 93  1  0  0  0  0
 86 94  1  0  0  0  0
 93 94  1  0  0  0  0
 87 95  1  0  0  0  0
 89 96  1  0  0  0  0
 90 96  1  0  0  0  0
 90 97  1  0  0  0  0
 91 97  1  0  0  0  0
 96 97  1  0  0  0  0
 91 98  1  0  0  0  0
 97 98  1  0  0  0  0
 91 99  1  0  0  0  0
 92 99  1  0  0  0  0
 98 99  1  0  0  0  0
 92100  1  0  0  0  0
 99100  1  0  0  0  0
 92101  1  0  0  0  0
 93101  1  0  0  0  0
100101  1  0  0  0  0
 93102  1  0  0  0  0
 94102  1  0  0  0  0
101102  1  0  0  0  0
 94103  1  0  0  0  0
102103  1  0  0  0  0
 95104  1  0  0  0  0
103104  1  0  0  0  0
104105  1  0  0  0  0
105106  1  0  0  0  0
 81107  1  0  0  0  0
 95108  1  0  0  0  0
 58109  1  0  0  0  0
 96110  1  0  0  0  0
 88111  1  0  0  0  0
 72112  1  0  0  0  0
 64113  1  0  0  0  0
 89114  1  0  0  0  0
 71115  1  0  0  0  0
105116  1  0  0  0  0
 58117  1  0  0  0  0
M  END
