 xtb: 6.7.1pre (5071a88)
          08312620243D

117148  0     0  0            999 V2000
    7.0453   -2.3530    4.7435 C   0  0  0  0  0  0  0  0  0  0  0  0
    7.1639   -1.1012    4.0837 O   0  0  0  0  0  0  0  0  0  0  0  0
    6.0133   -0.5098    3.6195 C   0  0  0  0  0  0  0  0  0  0  0  0
    4.7304   -1.0612    3.7693 C   0  0  0  0  0  0  0  0  0  0  0  0
    3.6417   -0.3708    3.2580 C   0  0  0  0  0  0  0  0  0  0  0  0
    3.8347    0.8404    2.6150 C   0  0  0  0  0  0  0  0  0  0  0  0
    5.0792    1.4200    2.4473 C   0  0  0  0  0  0  0  0  0  0  0  0
    6.1871    0.7368    2.9559 C   0  0  0  0  0  0  0  0  0  0  0  0
    7.4813    1.1897    2.8630 O   0  0  0  0  0  0  0  0  0  0  0  0
    7.6970    2.4317    2.2070 C   0  0  0  0  0  0  0  0  0  0  0  0
    2.5408    1.3448    2.1801 C   0  0  0  0  0  0  0  0  0  0  0  0
    2.3959    2.4059    1.5983 O   0  0  0  0  0  0  0  0  0  0  0  0
    1.4503    0.3499    2.5485 C   0  0  0  0  0  0  0  0  0  0  0  0
    0.3435    1.0333    3.3625 C   0  0  0  0  0  0  0  0  0  0  0  0
   -1.0279    0.3317    3.2922 C   0  0  0  0  0  0  0  0  0  0  0  0
   -1.0466   -1.0792    3.8841 C   0  0  0  0  0  0  0  0  0  0  0  0
   -2.4366   -1.7280    3.7691 C   0  0  0  0  0  0  0  0  0  0  0  0
   -3.5475   -0.7666    3.7488 N   0  0  0  0  0  0  0  0  0  0  0  0
   -4.8112   -1.4288    4.1092 C   0  0  0  0  0  0  0  0  0  0  0  0
   -6.0411   -0.6080    3.7806 C   0  0  0  0  0  0  0  0  0  0  0  0
   -7.0165   -0.3621    4.7578 C   0  0  0  0  0  0  0  0  0  0  0  0
   -8.1598    0.3774    4.4477 C   0  0  0  0  0  0  0  0  0  0  0  0
   -8.3426    0.8742    3.1584 C   0  0  0  0  0  0  0  0  0  0  0  0
   -7.3839    0.6317    2.1768 C   0  0  0  0  0  0  0  0  0  0  0  0
   -6.2413   -0.1079    2.4848 C   0  0  0  0  0  0  0  0  0  0  0  0
   -3.2574    0.3940    4.5890 C   0  0  0  0  0  0  0  0  0  0  0  0
   -2.0977    1.2004    3.9907 C   0  0  0  0  0  0  0  0  0  0  0  0
    2.2005   -0.7670    3.3156 C   0  0  0  0  0  0  0  0  0  0  0  0
    6.6349   -3.1157    4.0736 H   0  0  0  0  0  0  0  0  0  0  0  0
    6.4471   -2.2631    5.6561 H   0  0  0  0  0  0  0  0  0  0  0  0
    8.0499   -2.6738    5.0356 H   0  0  0  0  0  0  0  0  0  0  0  0
    4.5644   -2.0067    4.2723 H   0  0  0  0  0  0  0  0  0  0  0  0
    5.1501    2.3709    1.9334 H   0  0  0  0  0  0  0  0  0  0  0  0
    7.3845    2.3842    1.1586 H   0  0  0  0  0  0  0  0  0  0  0  0
    7.1947    3.2494    2.7342 H   0  0  0  0  0  0  0  0  0  0  0  0
    8.7718    2.6364    2.2241 H   0  0  0  0  0  0  0  0  0  0  0  0
    1.0511   -0.0504    1.6081 H   0  0  0  0  0  0  0  0  0  0  0  0
    0.6580    1.1402    4.4090 H   0  0  0  0  0  0  0  0  0  0  0  0
    0.2072    2.0575    2.9896 H   0  0  0  0  0  0  0  0  0  0  0  0
   -1.3064    0.2521    2.2317 H   0  0  0  0  0  0  0  0  0  0  0  0
   -0.3258   -1.7288    3.3787 H   0  0  0  0  0  0  0  0  0  0  0  0
   -0.7531   -1.0327    4.9409 H   0  0  0  0  0  0  0  0  0  0  0  0
   -2.5391   -2.4426    4.5966 H   0  0  0  0  0  0  0  0  0  0  0  0
   -2.4779   -2.3109    2.8407 H   0  0  0  0  0  0  0  0  0  0  0  0
   -4.8064   -1.7017    5.1729 H   0  0  0  0  0  0  0  0  0  0  0  0
   -4.9113   -2.3679    3.5479 H   0  0  0  0  0  0  0  0  0  0  0  0
   -6.8913   -0.7428    5.7684 H   0  0  0  0  0  0  0  0  0  0  0  0
   -8.9083    0.5660    5.2126 H   0  0  0  0  0  0  0  0  0  0  0  0
   -9.2318    1.4508    2.9183 H   0  0  0  0  0  0  0  0  0  0  0  0
   -7.5231    1.0192    1.1712 H   0  0  0  0  0  0  0  0  0  0  0  0
   -5.4948   -0.2885    1.7138 H   0  0  0  0  0  0  0  0  0  0  0  0
   -3.0110    0.0795    5.6120 H   0  0  0  0  0  0  0  0  0  0  0  0
   -4.1184    1.0676    4.6690 H   0  0  0  0  0  0  0  0  0  0  0  0
   -2.4893    1.9171    3.2568 H   0  0  0  0  0  0  0  0  0  0  0  0
   -1.6499    1.7977    4.7949 H   0  0  0  0  0  0  0  0  0  0  0  0
    1.8756   -0.8475    4.3580 H   0  0  0  0  0  0  0  0  0  0  0  0
    2.0538   -1.7335    2.8215 H   0  0  0  0  0  0  0  0  0  0  0  0
   -7.5000   -4.5000    0.0000 B   0  0  0  0  0  0  0  0  0  0  0  0
   -4.5000   -4.5000    0.0000 B   0  0  0  0  0  0  0  0  0  0  0  0
   -1.5000   -4.5000    0.0000 B   0  0  0  0  0  0  0  0  0  0  0  0
    1.5000   -4.5000    0.0000 B   0  0  0  0  0  0  0  0  0  0  0  0
    4.5000   -4.5000    0.0000 B   0  0  0  0  0  0  0  0  0  0  0  0
    7.5000   -4.5000    0.0000 B   0  0  0  0  0  0  0  0  0  0  0  0
   -7.5000   -3.0000    0.0000 B   0  0  0  0  0  0  0  0  0  0  0  0
   -4.5000   -3.0000    0.0000 B   0  0  0  0  0  0  0  0  0  0  0  0
   -1.5000   -3.0000    0.0000 B   0  0  0  0  0  0  0  0  0  0  0  0
    1.5000   -3.0000    0.0000 B   0  0  0  0  0  0  0  0  0  0  0  0
    4.5000   -3.0000    0.0000 B   0  0  0  0  0  0  0  0  0  0  0  0
    7.5000   -3.0000    0.0000 B   0  0  0  0  0  0  0  0  0  0  0  0
   -7.5000   -1.5000    0.0000 B   0  0  0  0  0  0  0  0  0  0  0  0
   -4.5000   -1.5000    0.0000 B   0  0  0  0  0  0  0  0  0  0  0  0
   -1.5000   -1.5000    0.0000 B   0  0  0  0  0  0  0  0  0  0  0  0
    1.5000   -1.5000    0.0000 B   0  0  0  0  0  0  0  0  0  0  0  0
    4.5000   -1.5000    0.0000 B   0  0  0  0  0  0  0  0  0  0  0  0
    7.5000   -1.5000    0.0000 B   0  0  0  0  0  0  0  0  0  0  0  0
   -7.5000    0.0000    0.0000 B   0  0  0  0  0  0  0  0  0  0  0  0
   -4.5000    0.0000    0.0000 B   0  0  0  0  0  0  0  0  0  0  0  0
   -1.5000    0.0000    0.0000 B   0  0  0  0  0  0  0  0  0  0  0  0
    1.5000    0.0000    0.0000 B   0  0  0  0  0  0  0  0  0  0  0  0
    4.5000    0.0000    0.0000 B   0  0  0  0  0  0  0  0  0  0  0  0
    7.5000    0.0000    0.0000 B   0  0  0  0  0  0  0  0  0  0  0  0
   -7.5000    1.5000    0.0000 B   0  0  0  0  0  0  0  0  0  0  0  0
   -4.5000    1.5000    0.0000 B   0  0  0  0  0  0  0  0  0  0  0  0
   -1.5000    1.5000    0.0000 B   0  0  0  0  0  0  0  0  0  0  0  0
    1.5000    1.5000    0.0000 B   0  0  0  0  0  0  0  0  0  0  0  0
    4.5000    1.5000    0.0000 B   0  0  0  0  0  0  0  0  0  0  0  0
    7.5000    1.5000    0.0000 B   0  0  0  0  0  0  0  0  0  0  0  0
   -7.5000    3.0000    0.0000 B   0  0  0  0  0  0  0  0  0  0  0  0
   -4.5000    3.0000    0.0000 B   0  0  0  0  0  0  0  0  0  0  0  0
   -1.5000    3.0000    0.0000 B   0  0  0  0  0  0  0  0  0  0  0  0
    1.5000    3.0000    0.0000 B   0  0  0  0  0  0  0  0  0  0  0  0
    4.5000    3.0000    0.0000 B   0  0  0  0  0  0  0  0  0  0  0  0
    7.5000    3.0000    0.0000 B   0  0  0  0  0  0  0  0  0  0  0  0
   -7.5000    4.5000    0.0000 B   0  0  0  0  0  0  0  0  0  0  0  0
   -4.5000    4.5000    0.0000 B   0  0  0  0  0  0  0  0  0  0  0  0
   -1.5000    4.5000    0.0000 B   0  0  0  0  0  0  0  0  0  0  0  0
    1.5000    4.5000    0.0000 B   0  0  0  0  0  0  0  0  0  0  0  0
    4.5000    4.5000    0.0000 B   0  0  0  0  0  0  0  0  0  0  0  0
    7.5000    4.5000    0.0000 B   0  0  0  0  0  0  0  0  0  0  0  0
   -6.0000   -3.7500    0.0000 B   0  0  0  0  0  0  0  0  0  0  0  0
   -3.0000   -3.7500    0.0000 B   0  0  0  0  0  0  0  0  0  0  0  0
    0.0000   -3.7500    0.0000 B   0  0  0  0  0  0  0  0  0  0  0  0
    3.0000   -3.7500    0.0000 B   0  0  0  0  0  0  0  0  0  0  0  0
    6.0000   -3.7500    0.0000 B   0  0  0  0  0  0  0  0  0  0  0  0
   -6.0000    3.7500    0.0000 B   0  0  0  0  0  0  0  0  0  0  0  0
   -3.0000    3.7500    0.0000 B   0  0  0  0  0  0  0  0  0  0  0  0
    0.0000    3.7500    0.0000 B   0  0  0  0  0  0  0  0  0  0  0  0
    3.0000    3.7500    0.0000 B   0  0  0  0  0  0  0  0  0  0  0  0
    6.0000    3.7500    0.0000 B   0  0  0  0  0  0  0  0  0  0  0  0
   -6.0000    0.0000    0.0000 B   0  0  0  0  0  0  0  0  0  0  0  0
   -8.6000   -4.5000    0.0000 H   0  0  0  0  0  0  0  0  0  0  0  0
   -8.6000   -1.5000    0.0000 H   0  0  0  0  0  0  0  0  0  0  0  0
   -8.6000    1.5000    0.0000 H   0  0  0  0  0  0  0  0  0  0  0  0
   -8.6000    4.5000    0.0000 H   0  0  0  0  0  0  0  0  0  0  0  0
    8.6000   -4.5000    0.0000 H   0  0  0  0  0  0  0  0  0  0  0  0
    8.6000   -1.5000    0.0000 H   0  0  0  0  0  0  0  0  0  0  0  0
    8.6000    1.5000    0.0000 H   0  0  0  0  0  0  0  0  0  0  0  0
  1  2  1  0  0  0  0
  2  3  1  0  0  0  0
  3  4  4  0  0  0  0
  4  5  4  0  0  0  0
  5  6  4  0  0  0  0
  6  7  4  0  0  0  0
  3  8  4  0  0  0  0
  7  8  4  0  0  0  0
  8  9  1  0  0  0  0
  9 10  1  0  0  0  0
  6 11  1  0  0  0  0
 11 12  4  0  0  0  0
 11 13  1  0  0  0  0
 13 14  1  0  0  0  0
 14 15  1  0  0  0  0
 15 16  1  0  0  0  0
 16 17  1  0  0  0  0
 17 18  1  0  0  0  0
 18 19  1  0  0  0  0
 19 20  1  0  0  0  0
 20 21  4  0  0  0  0
 21 22  4  0  0  0  0
 22 23  4  0  0  0  0
 23 24  4  0  0  0  0
 20 25  4  0  0  0  0
 24 25  4  0  0  0  0
 18 26  1  0  0  0  0
 15 27  1  0  0  0  0
 26 27  1  0  0  0  0
  5 28  1  0  0  0  0
 13 28  1  0  0  0  0
  1 29  1  0  0  0  0
  1 30  1  0  0  0  0
  1 31  1  0  0  0  0
  4 32  1  0  0  0  0
  7 33  1  0  0  0  0
 10 34  1  0  0  0  0
 10 35  1  0  0  0  0
 10 36  1  0  0  0  0
 13 37  1  0  0  0  0
 14 38  1  0  0  0  0
 14 39  1  0  0  0  0
 15 40  1  0  0  0  0
 16 41  1  0  0  0  0
 16 42  1  0  0  0  0
 17 43  1  0  0  0  0
 17 44  1  0  0  0  0
 19 45  1  0  0  0  0
 19 46  1  0  0  0  0
 21 47  1  0  0  0  0
 22 48  1  0  0  0  0
 23 49  1  0  0  0  0
 24 50  1  0  0  0  0
 25 51  1  0  0  0  0
 26 52  1  0  0  0  0
 26 53  1  0  0  0  0
 27 54  1  0  0  0  0
 27 55  1  0  0  0  0
 28 56  1  0  0  0  0
 28 57  1  0  0  0  0
 58 64  1  0  0  0  0
 59 65  1  0  0  0  0
 60 66  1  0  0  0  0
 61 67  1  0  0  0  0
 62 68  1  0  0  0  0
 63 69  1  0  0  0  0
 64 70  1  0  0  0  0
 65 71  1  0  0  0  0
 66 72  1  0  0  0  0
 67 73  1  0  0  0  0
 68 74  1  0  0  0  0
 69 75  1  0  0  0  0
 70 76  1  0  0  0  0
 71 77  1  0  0  0  0
 72 78  2  0  0  0  0
 73 79  2  0  0  0  0
 74 80  2  0  0  0  0
 75 81  2  0  0  0  0
 76 82  1  0  0  0  0
 77 83  1  0  0  0  0
 78 84  2  0  0  0  0
 79 85  2  0  0  0  0
 80 86  2  0  0  0  0
 81 87  1  0  0  0  0
 82 88  1  0  0  0  0
 83 89  1  0  0  0  0
 84 90  1  0  0  0  0
 85 91  1  0  0  0  0
 86 92  1  0  0  0  0
 87 93  1  0  0  0  0
 88 94  1  0  0  0  0
 89 95  1  0  0  0  0
 90 96  1  0  0  0  0
 91 97  1  0  0  0  0
 92 98  1  0  0  0  0
 93 99  2  0  0  0  0
 58100  1  0  0  0  0
 59100  1  0  0  0  0
 64100  1  0  0  0  0
 65100  1  0  0  0  0
 59101  1  0  0  0  0
 60101  1  0  0  0  0
 65101  1  0  0  0  0
 66101  1  0  0  0  0
 60102  1  0  0  0  0
 61102  1  0  0  0  0
 66102  1  0  0  0  0
 67102  1  0  0  0  0
 61103  1  0  0  0  0
 62103  1  0  0  0  0
 67103  1  0  0  0  0
 68103  1  0  0  0  0
 62104  1  0  0  0  0
 63104  1  0  0  0  0
 68104  1  0  0  0  0
 69104  1  0  0  0  0
 88105  1  0  0  0  0
 89105  1  0  0  0  0
 94105  1  0  0  0  0
 95105  1  0  0  0  0
 89106  1  0  0  0  0
 90106  1  0  0  0  0
 95106  1  0  0  0  0
 96106  1  0  0  0  0
 90107  1  0  0  0  0
 91107  1  0  0  0  0
 96107  1  0  0  0  0
 97107  1  0  0  0  0
 91108  1  0  0  0  0
 92108  1  0  0  0  0
 97108  1  0  0  0  0
 98108  1  0  0  0  0
 92109  1  0  0  0  0
 93109  1  0  0  0  0
 98109  1  0  0  0  0
 99109  1  0  0  0  0
 70110  1  0  0  0  0
 71110  1  0  0  0  0
 76110  1  0  0  0  0
 77110  1  0  0  0  0
 83110  1  0  0  0  0
 58111  1  0  0  0  0
 70112  1  0  0  0  0
 82113  1  0  0  0  0
 94114  1  0  0  0  0
 63115  1  0  0  0  0
 75116  1  0  0  0  0
 87117  1  0  0  0  0
M  END
