 xtb: 6.7.1pre (5071a88)
          08312622103D

117173  0     0  0            999 V2000
   -2.0421   -6.9638    9.1336 C   0  0  0  0  0  0  0  0  0  0  0  0
   -0.8453   -7.0197    8.4022 O   0  0  0  0  0  0  0  0  0  0  0  0
   -0.4173   -5.8800    7.7775 C   0  0  0  0  0  0  0  0  0  0  0  0
   -1.0208   -4.6317    7.9128 C   0  0  0  0  0  0  0  0  0  0  0  0
   -0.5071   -3.5528    7.2281 C   0  0  0  0  0  0  0  0  0  0  0  0
    0.6025   -3.6904    6.3880 C   0  0  0  0  0  0  0  0  0  0  0  0
    1.2222   -4.9423    6.2511 C   0  0  0  0  0  0  0  0  0  0  0  0
    0.7283   -6.0237    6.9517 C   0  0  0  0  0  0  0  0  0  0  0  0
    1.2602   -7.2838    6.9212 O   0  0  0  0  0  0  0  0  0  0  0  0
    2.4815   -7.4649    6.2520 C   0  0  0  0  0  0  0  0  0  0  0  0
    0.9288   -2.4313    5.7731 C   0  0  0  0  0  0  0  0  0  0  0  0
    1.7907   -2.1665    4.9357 O   0  0  0  0  0  0  0  0  0  0  0  0
   -0.0312   -1.3655    6.3474 C   0  0  0  0  0  0  0  0  0  0  0  0
    0.8007   -0.2960    7.0664 C   0  0  0  0  0  0  0  0  0  0  0  0
    0.1188    1.0666    7.2278 C   0  0  0  0  0  0  0  0  0  0  0  0
   -1.1595    1.0135    8.0606 C   0  0  0  0  0  0  0  0  0  0  0  0
   -1.8514    2.3815    8.0560 C   0  0  0  0  0  0  0  0  0  0  0  0
   -0.8987    3.4602    7.8653 N   0  0  0  0  0  0  0  0  0  0  0  0
   -1.4876    4.7444    8.1947 C   0  0  0  0  0  0  0  0  0  0  0  0
   -0.5738    5.8779    7.8221 C   0  0  0  0  0  0  0  0  0  0  0  0
   -0.3273    6.9169    8.7086 C   0  0  0  0  0  0  0  0  0  0  0  0
    0.5312    7.9472    8.3622 C   0  0  0  0  0  0  0  0  0  0  0  0
    1.1548    7.9421    7.1273 C   0  0  0  0  0  0  0  0  0  0  0  0
    0.9110    6.9099    6.2339 C   0  0  0  0  0  0  0  0  0  0  0  0
    0.0490    5.8855    6.5781 C   0  0  0  0  0  0  0  0  0  0  0  0
    0.3304    3.1945    8.5900 C   0  0  0  0  0  0  0  0  0  0  0  0
    1.0881    2.0558    7.8970 C   0  0  0  0  0  0  0  0  0  0  0  0
   -0.9975   -2.1373    7.2603 C   0  0  0  0  0  0  0  0  0  0  0  0
   -2.8782   -6.6158    8.5153 H   0  0  0  0  0  0  0  0  0  0  0  0
   -1.9521   -6.3189   10.0156 H   0  0  0  0  0  0  0  0  0  0  0  0
   -2.2420   -7.9843    9.4610 H   0  0  0  0  0  0  0  0  0  0  0  0
   -1.8805   -4.5024    8.5521 H   0  0  0  0  0  0  0  0  0  0  0  0
    2.0814   -5.0265    5.6064 H   0  0  0  0  0  0  0  0  0  0  0  0
    2.3829   -7.3006    5.1732 H   0  0  0  0  0  0  0  0  0  0  0  0
    3.2586   -6.8031    6.6497 H   0  0  0  0  0  0  0  0  0  0  0  0
    2.7662   -8.5011    6.4320 H   0  0  0  0  0  0  0  0  0  0  0  0
   -0.5560   -0.8962    5.5084 H   0  0  0  0  0  0  0  0  0  0  0  0
    1.0918   -0.6768    8.0502 H   0  0  0  0  0  0  0  0  0  0  0  0
    1.7172   -0.1477    6.4887 H   0  0  0  0  0  0  0  0  0  0  0  0
   -0.1459    1.4487    6.2377 H   0  0  0  0  0  0  0  0  0  0  0  0
   -1.8493    0.2742    7.6592 H   0  0  0  0  0  0  0  0  0  0  0  0
   -0.9054    0.7223    9.0830 H   0  0  0  0  0  0  0  0  0  0  0  0
   -2.4173    2.5068    8.9999 H   0  0  0  0  0  0  0  0  0  0  0  0
   -2.5714    2.4353    7.2301 H   0  0  0  0  0  0  0  0  0  0  0  0
   -1.7493    4.8108    9.2686 H   0  0  0  0  0  0  0  0  0  0  0  0
   -2.4212    4.8335    7.6253 H   0  0  0  0  0  0  0  0  0  0  0  0
   -0.8072    6.9164    9.6773 H   0  0  0  0  0  0  0  0  0  0  0  0
    0.7189    8.7475    9.0639 H   0  0  0  0  0  0  0  0  0  0  0  0
    1.8327    8.7393    6.8625 H   0  0  0  0  0  0  0  0  0  0  0  0
    1.3976    6.9061    5.2697 H   0  0  0  0  0  0  0  0  0  0  0  0
   -0.1406    5.0666    5.9014 H   0  0  0  0  0  0  0  0  0  0  0  0
    0.1219    2.9361    9.6431 H   0  0  0  0  0  0  0  0  0  0  0  0
    0.9411    4.0993    8.5920 H   0  0  0  0  0  0  0  0  0  0  0  0
    1.7649    2.4641    7.1454 H   0  0  0  0  0  0  0  0  0  0  0  0
    1.6962    1.5330    8.6383 H   0  0  0  0  0  0  0  0  0  0  0  0
   -0.9765   -1.7636    8.2857 H   0  0  0  0  0  0  0  0  0  0  0  0
   -2.0294   -2.0794    6.9054 H   0  0  0  0  0  0  0  0  0  0  0  0
   -6.1938   -2.8953   -0.2782 B   0  0  0  0  0  0  0  0  0  0  0  0
   -3.7729   -3.4384    1.0749 B   0  0  0  0  0  0  0  0  0  0  0  0
   -1.0316   -4.1564    2.3657 B   0  0  0  0  0  0  0  0  0  0  0  0
    1.7258   -4.1846    1.8358 B   0  0  0  0  0  0  0  0  0  0  0  0
    2.9881   -3.6347    1.0657 B   0  0  0  0  0  0  0  0  0  0  0  0
    5.8045   -3.8584   -0.2517 B   0  0  0  0  0  0  0  0  0  0  0  0
   -4.6142   -2.3413   -0.2477 B   0  0  0  0  0  0  0  0  0  0  0  0
   -2.5523   -2.2044    1.1375 B   0  0  0  0  0  0  0  0  0  0  0  0
   -1.2197   -2.3703    2.1551 B   0  0  0  0  0  0  0  0  0  0  0  0
    0.3166   -3.1200    1.7409 B   0  0  0  0  0  0  0  0  0  0  0  0
    3.1223   -2.0773    0.4678 B   0  0  0  0  0  0  0  0  0  0  0  0
    5.1222   -2.5722   -0.9304 B   0  0  0  0  0  0  0  0  0  0  0  0
   -4.2041   -1.0511   -1.1505 B   0  0  0  0  0  0  0  0  0  0  0  0
   -3.0717   -1.2675    0.0201 B   0  0  0  0  0  0  0  0  0  0  0  0
   -0.8024   -0.8829    2.5482 B   0  0  0  0  0  0  0  0  0  0  0  0
    0.4380   -1.4927    1.3369 B   0  0  0  0  0  0  0  0  0  0  0  0
    4.2006   -1.2430   -0.2877 B   0  0  0  0  0  0  0  0  0  0  0  0
    6.7169   -2.5124   -0.7915 B   0  0  0  0  0  0  0  0  0  0  0  0
   -4.7410   -0.6409   -2.6890 B   0  0  0  0  0  0  0  0  0  0  0  0
   -3.0596    0.1658   -0.6494 B   0  0  0  0  0  0  0  0  0  0  0  0
   -1.0014    0.6559    2.5679 B   0  0  0  0  0  0  0  0  0  0  0  0
    0.0032   -0.0092    1.3151 B   0  0  0  0  0  0  0  0  0  0  0  0
    4.8527    0.2500   -0.3628 B   0  0  0  0  0  0  0  0  0  0  0  0
    5.7463   -1.0746   -1.0073 B   0  0  0  0  0  0  0  0  0  0  0  0
   -5.4900    0.8592   -2.8167 B   0  0  0  0  0  0  0  0  0  0  0  0
   -2.7773    1.6359   -0.3980 B   0  0  0  0  0  0  0  0  0  0  0  0
   -1.2750    2.1632    2.3867 B   0  0  0  0  0  0  0  0  0  0  0  0
    0.1759    1.5627    1.4211 B   0  0  0  0  0  0  0  0  0  0  0  0
    4.2330    1.6403    0.2387 B   0  0  0  0  0  0  0  0  0  0  0  0
    6.1716    0.4222   -1.5420 B   0  0  0  0  0  0  0  0  0  0  0  0
   -5.5607    1.7676   -1.3968 B   0  0  0  0  0  0  0  0  0  0  0  0
   -3.2777    2.9818    0.0912 B   0  0  0  0  0  0  0  0  0  0  0  0
   -1.7062    3.6365    2.0438 B   0  0  0  0  0  0  0  0  0  0  0  0
   -0.0687    3.1830    1.6355 B   0  0  0  0  0  0  0  0  0  0  0  0
    2.9404    2.2630    0.9101 B   0  0  0  0  0  0  0  0  0  0  0  0
    5.7103    1.6964   -0.6404 B   0  0  0  0  0  0  0  0  0  0  0  0
   -6.5113    2.8343   -0.8550 B   0  0  0  0  0  0  0  0  0  0  0  0
   -4.4488    3.9413    0.7169 B   0  0  0  0  0  0  0  0  0  0  0  0
   -1.7780    5.2091    1.4954 B   0  0  0  0  0  0  0  0  0  0  0  0
    1.1717    4.4151    1.5807 B   0  0  0  0  0  0  0  0  0  0  0  0
    2.5773    3.9181    1.1121 B   0  0  0  0  0  0  0  0  0  0  0  0
    5.3037    3.0236   -0.0052 B   0  0  0  0  0  0  0  0  0  0  0  0
   -5.1894   -3.6733    0.5195 B   0  0  0  0  0  0  0  0  0  0  0  0
   -2.4395   -3.6291    1.8945 B   0  0  0  0  0  0  0  0  0  0  0  0
    0.3907   -4.7026    2.3493 B   0  0  0  0  0  0  0  0  0  0  0  0
    1.7500   -2.3766    1.2284 B   0  0  0  0  0  0  0  0  0  0  0  0
    4.2943   -3.4452    0.2469 B   0  0  0  0  0  0  0  0  0  0  0  0
   -5.0127    2.8801   -0.2522 B   0  0  0  0  0  0  0  0  0  0  0  0
   -3.0367    4.3728    1.1654 B   0  0  0  0  0  0  0  0  0  0  0  0
   -0.2877    4.9149    1.6944 B   0  0  0  0  0  0  0  0  0  0  0  0
    1.4493    2.5543    1.2947 B   0  0  0  0  0  0  0  0  0  0  0  0
    4.0402    3.5864    0.6505 B   0  0  0  0  0  0  0  0  0  0  0  0
   -4.4099    0.5928   -1.6480 B   0  0  0  0  0  0  0  0  0  0  0  0
   -7.1890   -2.5555   -0.8006 H   0  0  0  0  0  0  0  0  0  0  0  0
   -4.6455   -1.3744   -3.6071 H   0  0  0  0  0  0  0  0  0  0  0  0
   -5.9788    1.2613   -3.8087 H   0  0  0  0  0  0  0  0  0  0  0  0
   -7.4967    3.4470   -0.7038 H   0  0  0  0  0  0  0  0  0  0  0  0
    6.2214   -4.9576   -0.2927 H   0  0  0  0  0  0  0  0  0  0  0  0
    7.8652   -2.5228   -1.0346 H   0  0  0  0  0  0  0  0  0  0  0  0
    6.8238    0.5600   -2.5187 H   0  0  0  0  0  0  0  0  0  0  0  0
  1  2  1  0  0  0  0
  2  3  1  0  0  0  0
  3  4  4  0  0  0  0
  4  5  4  0  0  0  0
  5  6  4  0  0  0  0
  6  7  4  0  0  0  0
  3  8  4  0  0  0  0
  7  8  4  0  0  0  0
  8  9  1  0  0  0  0
  9 10  1  0  0  0  0
  6 11  1  0  0  0  0
 11 12  2  0  0  0  0
 11 13  1  0  0  0  0
 13 14  1  0  0  0  0
 14 15  1  0  0  0  0
 15 16  1  0  0  0  0
 16 17  1  0  0  0  0
 17 18  1  0  0  0  0
 18 19  1  0  0  0  0
 19 20  1  0  0  0  0
 20 21  4  0  0  0  0
 21 22  4  0  0  0  0
 22 23  4  0  0  0  0
 23 24  4  0  0  0  0
 20 25  4  0  0  0  0
 24 25  4  0  0  0  0
 18 26  1  0  0  0  0
 15 27  1  0  0  0  0
 26 27  1  0  0  0  0
  5 28  1  0  0  0  0
 13 28  1  0  0  0  0
  1 29  1  0  0  0  0
  1 30  1  0  0  0  0
  1 31  1  0  0  0  0
  4 32  1  0  0  0  0
  7 33  1  0  0  0  0
 10 34  1  0  0  0  0
 10 35  1  0  0  0  0
 10 36  1  0  0  0  0
 13 37  1  0  0  0  0
 14 38  1  0  0  0  0
 14 39  1  0  0  0  0
 15 40  1  0  0  0  0
 16 41  1  0  0  0  0
 16 42  1  0  0  0  0
 17 43  1  0  0  0  0
 17 44  1  0  0  0  0
 19 45  1  0  0  0  0
 19 46  1  0  0  0  0
 21 47  1  0  0  0  0
 22 48  1  0  0  0  0
 23 49  1  0  0  0  0
 24 50  1  0  0  0  0
 25 51  1  0  0  0  0
 26 52  1  0  0  0  0
 26 53  1  0  0  0  0
 27 54  1  0  0  0  0
 27 55  1  0  0  0  0
 28 56  1  0  0  0  0
 28 57  1  0  0  0  0
 61 62  1  0  0  0  0
 58 64  1  0  0  0  0
 59 64  1  0  0  0  0
 59 65  1  0  0  0  0
 60 66  1  0  0  0  0
 65 66  1  0  0  0  0
 60 67  1  0  0  0  0
 61 67  1  0  0  0  0
 66 67  1  0  0  0  0
 62 68  1  0  0  0  0
 63 69  1  0  0  0  0
 64 70  1  0  0  0  0
 64 71  1  0  0  0  0
 65 71  1  0  0  0  0
 70 71  1  0  0  0  0
 66 72  1  0  0  0  0
 67 73  1  0  0  0  0
 72 73  1  0  0  0  0
 68 74  1  0  0  0  0
 69 74  1  0  0  0  0
 63 75  1  0  0  0  0
 69 75  1  0  0  0  0
 70 76  1  0  0  0  0
 70 77  1  0  0  0  0
 71 77  1  0  0  0  0
 72 78  1  0  0  0  0
 72 79  1  0  0  0  0
 73 79  1  0  0  0  0
 78 79  1  0  0  0  0
 74 80  1  0  0  0  0
 69 81  1  0  0  0  0
 74 81  1  0  0  0  0
 75 81  1  0  0  0  0
 80 81  1  0  0  0  0
 76 82  1  0  0  0  0
 77 83  1  0  0  0  0
 78 84  1  0  0  0  0
 78 85  1  0  0  0  0
 79 85  1  0  0  0  0
 84 85  1  0  0  0  0
 80 86  1  0  0  0  0
 80 87  1  0  0  0  0
 81 87  1  0  0  0  0
 82 88  1  0  0  0  0
 83 89  2  0  0  0  0
 84 90  1  0  0  0  0
 84 91  1  0  0  0  0
 85 91  1  0  0  0  0
 90 91  1  0  0  0  0
 86 92  1  0  0  0  0
 80 93  1  0  0  0  0
 86 93  1  0  0  0  0
 87 93  1  0  0  0  0
 88 94  1  0  0  0  0
 89 95  1  0  0  0  0
 90 96  1  0  0  0  0
 91 97  1  0  0  0  0
 92 98  1  0  0  0  0
 97 98  1  0  0  0  0
 86 99  1  0  0  0  0
 93 99  1  0  0  0  0
 58100  2  0  0  0  0
 59100  1  0  0  0  0
 64100  1  0  0  0  0
 59101  1  0  0  0  0
 60101  1  0  0  0  0
 65101  1  0  0  0  0
 66101  1  0  0  0  0
 60102  1  0  0  0  0
 61102  1  0  0  0  0
 67102  1  0  0  0  0
 61103  1  0  0  0  0
 62103  1  0  0  0  0
 67103  1  0  0  0  0
 68103  1  0  0  0  0
 73103  1  0  0  0  0
 62104  1  0  0  0  0
 63104  1  0  0  0  0
 68104  1  0  0  0  0
 69104  1  0  0  0  0
 88105  1  0  0  0  0
 89105  1  0  0  0  0
 94105  1  0  0  0  0
 95105  1  0  0  0  0
 89106  1  0  0  0  0
 90106  1  0  0  0  0
 95106  1  0  0  0  0
 96106  1  0  0  0  0
 90107  1  0  0  0  0
 91107  1  0  0  0  0
 96107  1  0  0  0  0
 97107  1  0  0  0  0
 85108  1  0  0  0  0
 91108  1  0  0  0  0
 92108  1  0  0  0  0
 97108  1  0  0  0  0
 98108  1  0  0  0  0
 86109  1  0  0  0  0
 92109  1  0  0  0  0
 98109  1  0  0  0  0
 99109  1  0  0  0  0
 70110  1  0  0  0  0
 76110  1  0  0  0  0
 77110  1  0  0  0  0
 82110  1  0  0  0  0
 88110  1  0  0  0  0
 58111  1  0  0  0  0
 76112  1  0  0  0  0
 82113  1  0  0  0  0
 94114  1  0  0  0  0
 63115  1  0  0  0  0
 75116  1  0  0  0  0
 87117  1  0  0  0  0
M  END
