 xtb: 6.7.1pre (5071a88)
          09012620423D

112151  0     0  0            999 V2000
   -1.5358   -6.8121    9.1232 C   0  0  0  0  0  0  0  0  0  0  0  0
   -0.6655   -6.8611    8.0228 O   0  0  0  0  0  0  0  0  0  0  0  0
   -0.3658   -5.6973    7.3795 C   0  0  0  0  0  0  0  0  0  0  0  0
   -0.8681   -4.4469    7.7254 C   0  0  0  0  0  0  0  0  0  0  0  0
   -0.4857   -3.3414    6.9943 C   0  0  0  0  0  0  0  0  0  0  0  0
    0.3930   -3.4709    5.9178 C   0  0  0  0  0  0  0  0  0  0  0  0
    0.9069   -4.7238    5.5559 C   0  0  0  0  0  0  0  0  0  0  0  0
    0.5306   -5.8313    6.2853 C   0  0  0  0  0  0  0  0  0  0  0  0
    0.9549   -7.1060    6.0507 O   0  0  0  0  0  0  0  0  0  0  0  0
    1.8256   -7.3185    4.9669 C   0  0  0  0  0  0  0  0  0  0  0  0
    0.6572   -2.1859    5.3253 C   0  0  0  0  0  0  0  0  0  0  0  0
    1.4057   -1.9186    4.3891 O   0  0  0  0  0  0  0  0  0  0  0  0
   -0.1782   -1.1374    6.0729 C   0  0  0  0  0  0  0  0  0  0  0  0
    0.7213    0.0218    6.5190 C   0  0  0  0  0  0  0  0  0  0  0  0
    0.0120    1.3641    6.7211 C   0  0  0  0  0  0  0  0  0  0  0  0
   -0.9895    1.3510    7.8731 C   0  0  0  0  0  0  0  0  0  0  0  0
   -1.7449    2.6831    7.9262 C   0  0  0  0  0  0  0  0  0  0  0  0
   -0.9299    3.7798    7.4345 N   0  0  0  0  0  0  0  0  0  0  0  0
   -1.4835    5.0632    7.8132 C   0  0  0  0  0  0  0  0  0  0  0  0
   -0.7875    6.2037    7.1231 C   0  0  0  0  0  0  0  0  0  0  0  0
   -0.5466    7.3978    7.7885 C   0  0  0  0  0  0  0  0  0  0  0  0
    0.0850    8.4472    7.1429 C   0  0  0  0  0  0  0  0  0  0  0  0
    0.4911    8.3078    5.8272 C   0  0  0  0  0  0  0  0  0  0  0  0
    0.2555    7.1173    5.1588 C   0  0  0  0  0  0  0  0  0  0  0  0
   -0.3855    6.0731    5.7995 C   0  0  0  0  0  0  0  0  0  0  0  0
    0.4578    3.6078    7.8116 C   0  0  0  0  0  0  0  0  0  0  0  0
    1.0559    2.4633    6.9862 C   0  0  0  0  0  0  0  0  0  0  0  0
   -0.8812   -1.9100    7.2024 C   0  0  0  0  0  0  0  0  0  0  0  0
   -2.5284   -6.4463    8.8382 H   0  0  0  0  0  0  0  0  0  0  0  0
   -1.1364   -6.1848    9.9275 H   0  0  0  0  0  0  0  0  0  0  0  0
   -1.6200   -7.8384    9.4773 H   0  0  0  0  0  0  0  0  0  0  0  0
   -1.5467   -4.3344    8.5562 H   0  0  0  0  0  0  0  0  0  0  0  0
    1.5857   -4.7805    4.7209 H   0  0  0  0  0  0  0  0  0  0  0  0
    1.3534   -7.0444    4.0184 H   0  0  0  0  0  0  0  0  0  0  0  0
    2.7585   -6.7577    5.0817 H   0  0  0  0  0  0  0  0  0  0  0  0
    2.0415   -8.3857    4.9696 H   0  0  0  0  0  0  0  0  0  0  0  0
   -0.9103   -0.7405    5.3613 H   0  0  0  0  0  0  0  0  0  0  0  0
    1.2417   -0.2630    7.4368 H   0  0  0  0  0  0  0  0  0  0  0  0
    1.4766    0.1599    5.7413 H   0  0  0  0  0  0  0  0  0  0  0  0
   -0.5346    1.6219    5.8110 H   0  0  0  0  0  0  0  0  0  0  0  0
   -1.7119    0.5464    7.7500 H   0  0  0  0  0  0  0  0  0  0  0  0
   -0.4568    1.1811    8.8115 H   0  0  0  0  0  0  0  0  0  0  0  0
   -2.0825    2.8654    8.9642 H   0  0  0  0  0  0  0  0  0  0  0  0
   -2.6359    2.6338    7.2925 H   0  0  0  0  0  0  0  0  0  0  0  0
   -1.4542    5.2185    8.9096 H   0  0  0  0  0  0  0  0  0  0  0  0
   -2.5375    5.0623    7.5114 H   0  0  0  0  0  0  0  0  0  0  0  0
   -0.8554    7.5094    8.8190 H   0  0  0  0  0  0  0  0  0  0  0  0
    0.2647    9.3727    7.6711 H   0  0  0  0  0  0  0  0  0  0  0  0
    0.9909    9.1243    5.3266 H   0  0  0  0  0  0  0  0  0  0  0  0
    0.5713    7.0014    4.1332 H   0  0  0  0  0  0  0  0  0  0  0  0
   -0.5733    5.1445    5.2839 H   0  0  0  0  0  0  0  0  0  0  0  0
    0.5579    3.4031    8.8932 H   0  0  0  0  0  0  0  0  0  0  0  0
    0.9952    4.5345    7.6041 H   0  0  0  0  0  0  0  0  0  0  0  0
    1.4101    2.8524    6.0323 H   0  0  0  0  0  0  0  0  0  0  0  0
    1.9098    2.0486    7.5252 H   0  0  0  0  0  0  0  0  0  0  0  0
   -0.5476   -1.5689    8.1845 H   0  0  0  0  0  0  0  0  0  0  0  0
   -1.9669   -1.7992    7.1664 H   0  0  0  0  0  0  0  0  0  0  0  0
   -4.8175   -2.4255    0.6549 B   0  0  0  0  0  0  0  0  0  0  0  0
   -4.3615   -0.9932    0.1402 B   0  0  0  0  0  0  0  0  0  0  0  0
   -3.9897    0.3858   -0.7173 B   0  0  0  0  0  0  0  0  0  0  0  0
   -3.3028   -2.4277    0.1062 B   0  0  0  0  0  0  0  0  0  0  0  0
   -2.6293    0.4988    0.0360 B   0  0  0  0  0  0  0  0  0  0  0  0
   -4.1355    0.4887    1.0737 B   0  0  0  0  0  0  0  0  0  0  0  0
   -4.8678    1.3479    2.2083 B   0  0  0  0  0  0  0  0  0  0  0  0
   -4.3805    2.8114    2.7763 B   0  0  0  0  0  0  0  0  0  0  0  0
   -2.6265    0.3892    1.6939 B   0  0  0  0  0  0  0  0  0  0  0  0
   -3.0956    2.7889    3.7784 B   0  0  0  0  0  0  0  0  0  0  0  0
   -2.1469   -3.6089   -0.0501 B   0  0  0  0  0  0  0  0  0  0  0  0
   -1.7188   -2.0776    0.0226 B   0  0  0  0  0  0  0  0  0  0  0  0
   -1.4490   -0.5387    0.5485 B   0  0  0  0  0  0  0  0  0  0  0  0
   -0.5155   -3.1561    0.0764 B   0  0  0  0  0  0  0  0  0  0  0  0
   -0.0300   -0.3464    1.3308 B   0  0  0  0  0  0  0  0  0  0  0  0
   -1.3342   -0.3376    2.3622 B   0  0  0  0  0  0  0  0  0  0  0  0
   -1.6081    1.2839    2.6365 B   0  0  0  0  0  0  0  0  0  0  0  0
   -1.6747    2.8150    3.0427 B   0  0  0  0  0  0  0  0  0  0  0  0
   -0.1353    0.4956    2.9327 B   0  0  0  0  0  0  0  0  0  0  0  0
   -0.4354    3.8702    2.9819 B   0  0  0  0  0  0  0  0  0  0  0  0
    0.7945   -4.1935    0.1660 B   0  0  0  0  0  0  0  0  0  0  0  0
    1.0271   -2.6376    0.4824 B   0  0  0  0  0  0  0  0  0  0  0  0
    1.3786   -1.1757    1.0234 B   0  0  0  0  0  0  0  0  0  0  0  0
    2.1320   -3.7498    1.0273 B   0  0  0  0  0  0  0  0  0  0  0  0
    2.7663   -0.6325    1.6552 B   0  0  0  0  0  0  0  0  0  0  0  0
    1.3737    0.0870    2.1254 B   0  0  0  0  0  0  0  0  0  0  0  0
    1.2517    1.3546    3.2476 B   0  0  0  0  0  0  0  0  0  0  0  0
    0.7910    2.8783    3.0489 B   0  0  0  0  0  0  0  0  0  0  0  0
    2.6731    1.0935    2.3939 B   0  0  0  0  0  0  0  0  0  0  0  0
    1.6023    2.6647    1.5980 B   0  0  0  0  0  0  0  0  0  0  0  0
    3.0061   -4.6326    2.1552 B   0  0  0  0  0  0  0  0  0  0  0  0
    3.5423   -3.1889    1.6224 B   0  0  0  0  0  0  0  0  0  0  0  0
    4.0860   -1.6718    1.6987 B   0  0  0  0  0  0  0  0  0  0  0  0
    4.2066   -3.8554    2.8886 B   0  0  0  0  0  0  0  0  0  0  0  0
    5.5351   -0.8565    1.6293 B   0  0  0  0  0  0  0  0  0  0  0  0
    4.2349   -0.1058    2.2487 B   0  0  0  0  0  0  0  0  0  0  0  0
    4.2590    1.6633    2.5738 B   0  0  0  0  0  0  0  0  0  0  0  0
    3.2081    2.6573    1.7279 B   0  0  0  0  0  0  0  0  0  0  0  0
    5.6178    0.7263    2.4183 B   0  0  0  0  0  0  0  0  0  0  0  0
    4.6980    3.0341    1.8833 B   0  0  0  0  0  0  0  0  0  0  0  0
   -5.4271   -3.1285    1.3681 H   0  0  0  0  0  0  0  0  0  0  0  0
   -5.5627   -1.6140   -0.0224 H   0  0  0  0  0  0  0  0  0  0  0  0
   -4.6437    0.8278   -1.5934 H   0  0  0  0  0  0  0  0  0  0  0  0
   -5.7513    0.8452    2.8268 H   0  0  0  0  0  0  0  0  0  0  0  0
   -5.0097    3.7814    2.5395 H   0  0  0  0  0  0  0  0  0  0  0  0
   -3.2801    2.5969    4.9287 H   0  0  0  0  0  0  0  0  0  0  0  0
   -2.4182   -4.7285   -0.2624 H   0  0  0  0  0  0  0  0  0  0  0  0
   -0.4886    5.0266    2.7654 H   0  0  0  0  0  0  0  0  0  0  0  0
    0.7304   -5.2496   -0.3380 H   0  0  0  0  0  0  0  0  0  0  0  0
    1.0390    2.5632    0.5604 H   0  0  0  0  0  0  0  0  0  0  0  0
    2.6863   -5.7258    2.4289 H   0  0  0  0  0  0  0  0  0  0  0  0
    4.9964   -3.8616    3.7446 H   0  0  0  0  0  0  0  0  0  0  0  0
    6.5808   -1.2821    1.3189 H   0  0  0  0  0  0  0  0  0  0  0  0
    6.6796    0.9848    2.8430 H   0  0  0  0  0  0  0  0  0  0  0  0
    5.6128    3.7400    1.7161 H   0  0  0  0  0  0  0  0  0  0  0  0
  1  2  1  0  0  0  0
  2  3  1  0  0  0  0
  3  4  4  0  0  0  0
  4  5  4  0  0  0  0
  5  6  4  0  0  0  0
  6  7  4  0  0  0  0
  3  8  4  0  0  0  0
  7  8  4  0  0  0  0
  8  9  1  0  0  0  0
  9 10  1  0  0  0  0
  6 11  1  0  0  0  0
 11 12  2  0  0  0  0
 11 13  1  0  0  0  0
 13 14  1  0  0  0  0
 14 15  1  0  0  0  0
 15 16  1  0  0  0  0
 16 17  1  0  0  0  0
 17 18  1  0  0  0  0
 18 19  1  0  0  0  0
 19 20  1  0  0  0  0
 20 21  4  0  0  0  0
 21 22  4  0  0  0  0
 22 23  4  0  0  0  0
 23 24  4  0  0  0  0
 20 25  4  0  0  0  0
 24 25  4  0  0  0  0
 18 26  1  0  0  0  0
 15 27  1  0  0  0  0
 26 27  1  0  0  0  0
  5 28  1  0  0  0  0
 13 28  1  0  0  0  0
  1 29  1  0  0  0  0
  1 30  1  0  0  0  0
  1 31  1  0  0  0  0
  4 32  1  0  0  0  0
  7 33  1  0  0  0  0
 10 34  1  0  0  0  0
 10 35  1  0  0  0  0
 10 36  1  0  0  0  0
 13 37  1  0  0  0  0
 14 38  1  0  0  0  0
 14 39  1  0  0  0  0
 15 40  1  0  0  0  0
 16 41  1  0  0  0  0
 16 42  1  0  0  0  0
 17 43  1  0  0  0  0
 17 44  1  0  0  0  0
 19 45  1  0  0  0  0
 19 46  1  0  0  0  0
 21 47  1  0  0  0  0
 22 48  1  0  0  0  0
 23 49  1  0  0  0  0
 24 50  1  0  0  0  0
 25 51  1  0  0  0  0
 26 52  1  0  0  0  0
 26 53  1  0  0  0  0
 27 54  1  0  0  0  0
 27 55  1  0  0  0  0
 28 56  1  0  0  0  0
 28 57  1  0  0  0  0
 58 59  1  0  0  0  0
 59 60  1  0  0  0  0
 58 61  1  0  0  0  0
 59 61  1  0  0  0  0
 60 62  1  0  0  0  0
 59 63  1  0  0  0  0
 60 63  1  0  0  0  0
 62 63  1  0  0  0  0
 63 64  1  0  0  0  0
 64 65  1  0  0  0  0
 62 66  1  0  0  0  0
 63 66  1  0  0  0  0
 65 67  1  0  0  0  0
 61 68  1  0  0  0  0
 61 69  1  0  0  0  0
 68 69  1  0  0  0  0
 62 70  1  0  0  0  0
 66 70  1  0  0  0  0
 69 70  1  0  0  0  0
 68 71  1  0  0  0  0
 69 71  1  0  0  0  0
 70 72  1  0  0  0  0
 66 73  1  0  0  0  0
 70 73  1  0  0  0  0
 72 73  1  0  0  0  0
 66 74  1  0  0  0  0
 73 74  1  0  0  0  0
 67 75  1  0  0  0  0
 74 75  1  0  0  0  0
 72 76  1  0  0  0  0
 73 76  1  0  0  0  0
 74 76  1  0  0  0  0
 75 77  1  0  0  0  0
 71 78  1  0  0  0  0
 71 79  1  0  0  0  0
 78 79  1  0  0  0  0
 72 80  1  0  0  0  0
 79 80  1  0  0  0  0
 78 81  1  0  0  0  0
 79 81  1  0  0  0  0
 80 82  1  0  0  0  0
 72 83  1  0  0  0  0
 76 83  1  0  0  0  0
 80 83  1  0  0  0  0
 82 83  1  0  0  0  0
 76 84  1  0  0  0  0
 83 84  1  0  0  0  0
 77 85  1  0  0  0  0
 84 85  1  0  0  0  0
 82 86  1  0  0  0  0
 83 86  1  0  0  0  0
 84 86  1  0  0  0  0
 85 87  1  0  0  0  0
 81 88  1  0  0  0  0
 81 89  1  0  0  0  0
 88 89  1  0  0  0  0
 82 90  1  0  0  0  0
 89 90  1  0  0  0  0
 88 91  1  0  0  0  0
 89 91  1  0  0  0  0
 90 92  1  0  0  0  0
 82 93  1  0  0  0  0
 86 93  1  0  0  0  0
 90 93  1  0  0  0  0
 92 93  1  0  0  0  0
 86 94  1  0  0  0  0
 93 94  1  0  0  0  0
 86 95  1  0  0  0  0
 87 95  1  0  0  0  0
 94 95  1  0  0  0  0
 92 96  1  0  0  0  0
 93 96  1  0  0  0  0
 94 96  1  0  0  0  0
 94 97  1  0  0  0  0
 95 97  1  0  0  0  0
 58 98  1  0  0  0  0
 58 99  1  0  0  0  0
 59 99  1  0  0  0  0
 60100  1  0  0  0  0
 64101  1  0  0  0  0
 65102  1  0  0  0  0
 67103  1  0  0  0  0
 68104  1  0  0  0  0
 77105  1  0  0  0  0
 78106  1  0  0  0  0
 87107  1  0  0  0  0
 88108  1  0  0  0  0
 91109  1  0  0  0  0
 92110  1  0  0  0  0
 96111  1  0  0  0  0
 97112  1  0  0  0  0
M  END
