 xtb: 6.7.1pre (5071a88)
          08312622073D

112168  0     0  0            999 V2000
   -0.5180   -1.2074    5.1346 O   0  0  0  0  0  0  0  0  0  0  0  0
   -0.0331   -0.9221    6.2192 C   0  0  0  0  0  0  0  0  0  0  0  0
   -0.3839   -1.4642    7.3956 O   0  0  0  0  0  0  0  0  0  0  0  0
   -1.3147   -2.4899    7.3797 C   0  0  0  0  0  0  0  0  0  0  0  0
   -2.3310   -2.4515    8.3272 C   0  0  0  0  0  0  0  0  0  0  0  0
   -3.2920   -3.4500    8.3341 C   0  0  0  0  0  0  0  0  0  0  0  0
   -4.3010   -3.4151    9.2404 O   0  0  0  0  0  0  0  0  0  0  0  0
   -3.2330   -4.4797    7.3871 C   0  0  0  0  0  0  0  0  0  0  0  0
   -4.2097   -5.4468    7.4094 O   0  0  0  0  0  0  0  0  0  0  0  0
   -2.2125   -4.4971    6.4362 C   0  0  0  0  0  0  0  0  0  0  0  0
   -2.2181   -5.5144    5.5177 O   0  0  0  0  0  0  0  0  0  0  0  0
   -1.2419   -3.5097    6.4380 C   0  0  0  0  0  0  0  0  0  0  0  0
    1.0611    0.1229    6.3688 C   0  0  0  0  0  0  0  0  0  0  0  0
    2.3008   -0.5586    6.4661 O   0  0  0  0  0  0  0  0  0  0  0  0
    3.3711    0.2539    6.6838 C   0  0  0  0  0  0  0  0  0  0  0  0
    4.6234   -0.2823    6.4130 C   0  0  0  0  0  0  0  0  0  0  0  0
    5.7557    0.4989    6.5819 C   0  0  0  0  0  0  0  0  0  0  0  0
    6.9624   -0.0590    6.3030 O   0  0  0  0  0  0  0  0  0  0  0  0
    5.6384    1.8220    6.9863 C   0  0  0  0  0  0  0  0  0  0  0  0
    4.3854    2.3576    7.2499 C   0  0  0  0  0  0  0  0  0  0  0  0
    4.3007    3.6581    7.6105 O   0  0  0  0  0  0  0  0  0  0  0  0
    3.2390    1.5643    7.1386 C   0  0  0  0  0  0  0  0  0  0  0  0
    1.8978    2.1346    7.5428 C   0  0  0  0  0  0  0  0  0  0  0  0
    1.5470    3.1766    6.6403 O   0  0  0  0  0  0  0  0  0  0  0  0
    0.8516    1.0086    7.5969 C   0  0  0  0  0  0  0  0  0  0  0  0
   -0.5426    1.5642    7.7167 C   0  0  0  0  0  0  0  0  0  0  0  0
   -1.3353    1.8133    6.5991 C   0  0  0  0  0  0  0  0  0  0  0  0
   -2.6079    2.3484    6.7553 C   0  0  0  0  0  0  0  0  0  0  0  0
   -3.4328    2.6065    5.6917 O   0  0  0  0  0  0  0  0  0  0  0  0
   -3.0873    2.6599    8.0249 C   0  0  0  0  0  0  0  0  0  0  0  0
   -4.3350    3.1943    8.2177 O   0  0  0  0  0  0  0  0  0  0  0  0
   -2.2895    2.4193    9.1464 C   0  0  0  0  0  0  0  0  0  0  0  0
   -2.7420    2.7097   10.3882 O   0  0  0  0  0  0  0  0  0  0  0  0
   -1.0231    1.8769    8.9811 C   0  0  0  0  0  0  0  0  0  0  0  0
   -2.3839   -1.6469    9.0412 H   0  0  0  0  0  0  0  0  0  0  0  0
   -4.8756   -4.1755    9.0688 H   0  0  0  0  0  0  0  0  0  0  0  0
   -4.0003   -6.0784    6.7100 H   0  0  0  0  0  0  0  0  0  0  0  0
   -1.5481   -5.3458    4.8318 H   0  0  0  0  0  0  0  0  0  0  0  0
   -0.4516   -3.5257    5.7045 H   0  0  0  0  0  0  0  0  0  0  0  0
    1.0727    0.7299    5.4511 H   0  0  0  0  0  0  0  0  0  0  0  0
    4.7059   -1.2993    6.0722 H   0  0  0  0  0  0  0  0  0  0  0  0
    7.6628    0.5864    6.4589 H   0  0  0  0  0  0  0  0  0  0  0  0
    6.5071    2.4535    7.0945 H   0  0  0  0  0  0  0  0  0  0  0  0
    3.3836    3.9480    7.5038 H   0  0  0  0  0  0  0  0  0  0  0  0
    1.9782    2.5696    8.5563 H   0  0  0  0  0  0  0  0  0  0  0  0
    0.5771    3.2198    6.5723 H   0  0  0  0  0  0  0  0  0  0  0  0
    1.0655    0.3956    8.4771 H   0  0  0  0  0  0  0  0  0  0  0  0
   -1.0060    1.5550    5.6043 H   0  0  0  0  0  0  0  0  0  0  0  0
   -3.0397    2.2635    4.8764 H   0  0  0  0  0  0  0  0  0  0  0  0
   -4.7637    3.2571    7.3548 H   0  0  0  0  0  0  0  0  0  0  0  0
   -3.6488    3.0390   10.3120 H   0  0  0  0  0  0  0  0  0  0  0  0
   -0.4247    1.6891    9.8575 H   0  0  0  0  0  0  0  0  0  0  0  0
   -6.3288   -2.8090   -0.0461 B   0  0  0  0  0  0  0  0  0  0  0  0
   -3.8838   -3.4822    1.2105 B   0  0  0  0  0  0  0  0  0  0  0  0
   -1.0857   -4.1734    2.4187 B   0  0  0  0  0  0  0  0  0  0  0  0
    1.6673   -4.1982    1.8218 B   0  0  0  0  0  0  0  0  0  0  0  0
    2.9354   -3.6942    1.0252 B   0  0  0  0  0  0  0  0  0  0  0  0
    5.8441   -3.8713   -0.0860 B   0  0  0  0  0  0  0  0  0  0  0  0
   -4.7204   -2.3554   -0.1175 B   0  0  0  0  0  0  0  0  0  0  0  0
   -2.6397   -2.2737    1.1672 B   0  0  0  0  0  0  0  0  0  0  0  0
   -1.2842   -2.4260    2.1320 B   0  0  0  0  0  0  0  0  0  0  0  0
    0.2556   -3.1378    1.6915 B   0  0  0  0  0  0  0  0  0  0  0  0
    3.0661   -2.1706    0.3486 B   0  0  0  0  0  0  0  0  0  0  0  0
    5.1711   -2.6480   -0.8749 B   0  0  0  0  0  0  0  0  0  0  0  0
   -4.3032   -1.1119   -1.0913 B   0  0  0  0  0  0  0  0  0  0  0  0
   -3.1562   -1.3343    0.0521 B   0  0  0  0  0  0  0  0  0  0  0  0
   -0.8437   -0.9282    2.4136 B   0  0  0  0  0  0  0  0  0  0  0  0
    0.3928   -1.5182    1.2204 B   0  0  0  0  0  0  0  0  0  0  0  0
    4.1574   -1.3198   -0.3742 B   0  0  0  0  0  0  0  0  0  0  0  0
    6.7458   -2.5114   -0.6133 B   0  0  0  0  0  0  0  0  0  0  0  0
   -4.8494   -0.7451   -2.6373 B   0  0  0  0  0  0  0  0  0  0  0  0
   -3.1005    0.0854   -0.6469 B   0  0  0  0  0  0  0  0  0  0  0  0
   -1.0378    0.6131    2.4827 B   0  0  0  0  0  0  0  0  0  0  0  0
   -0.0311   -0.0301    1.2258 B   0  0  0  0  0  0  0  0  0  0  0  0
    4.7647    0.1836   -0.4110 B   0  0  0  0  0  0  0  0  0  0  0  0
    5.7429   -1.1297   -0.9864 B   0  0  0  0  0  0  0  0  0  0  0  0
   -5.4882    0.8024   -2.8452 B   0  0  0  0  0  0  0  0  0  0  0  0
   -2.7470    1.5376   -0.3690 B   0  0  0  0  0  0  0  0  0  0  0  0
   -1.2771    2.1312    2.4369 B   0  0  0  0  0  0  0  0  0  0  0  0
    0.1539    1.5369    1.4097 B   0  0  0  0  0  0  0  0  0  0  0  0
    4.1691    1.5657    0.1941 B   0  0  0  0  0  0  0  0  0  0  0  0
    6.1151    0.3501   -1.5910 B   0  0  0  0  0  0  0  0  0  0  0  0
   -5.5376    1.7460   -1.4517 B   0  0  0  0  0  0  0  0  0  0  0  0
   -3.2564    2.8906    0.0932 B   0  0  0  0  0  0  0  0  0  0  0  0
   -1.6826    3.6187    2.1445 B   0  0  0  0  0  0  0  0  0  0  0  0
   -0.0603    3.1513    1.7266 B   0  0  0  0  0  0  0  0  0  0  0  0
    2.9185    2.2351    0.9029 B   0  0  0  0  0  0  0  0  0  0  0  0
    5.6281    1.6297   -0.7088 B   0  0  0  0  0  0  0  0  0  0  0  0
   -6.4535    2.8632   -0.9463 B   0  0  0  0  0  0  0  0  0  0  0  0
   -4.4195    3.8623    0.7149 B   0  0  0  0  0  0  0  0  0  0  0  0
   -1.7781    5.1533    1.5153 B   0  0  0  0  0  0  0  0  0  0  0  0
    1.1679    4.3846    1.6274 B   0  0  0  0  0  0  0  0  0  0  0  0
    2.5561    3.8943    1.0952 B   0  0  0  0  0  0  0  0  0  0  0  0
    5.2323    2.9619   -0.0734 B   0  0  0  0  0  0  0  0  0  0  0  0
   -5.3329   -3.6337    0.7144 B   0  0  0  0  0  0  0  0  0  0  0  0
   -2.5150   -3.6804    1.9661 B   0  0  0  0  0  0  0  0  0  0  0  0
    0.3514   -4.6810    2.4111 B   0  0  0  0  0  0  0  0  0  0  0  0
    1.6752   -2.4340    1.0903 B   0  0  0  0  0  0  0  0  0  0  0  0
    4.2810   -3.5042    0.2750 B   0  0  0  0  0  0  0  0  0  0  0  0
   -4.9734    2.8349   -0.2985 B   0  0  0  0  0  0  0  0  0  0  0  0
   -3.0104    4.2728    1.1879 B   0  0  0  0  0  0  0  0  0  0  0  0
   -0.2902    4.8873    1.7667 B   0  0  0  0  0  0  0  0  0  0  0  0
    1.4338    2.5284    1.3106 B   0  0  0  0  0  0  0  0  0  0  0  0
    4.0052    3.5778    0.6019 B   0  0  0  0  0  0  0  0  0  0  0  0
   -4.4470    0.5066   -1.6495 B   0  0  0  0  0  0  0  0  0  0  0  0
   -7.3292   -2.4093   -0.5128 H   0  0  0  0  0  0  0  0  0  0  0  0
   -4.8227   -1.5333   -3.5134 H   0  0  0  0  0  0  0  0  0  0  0  0
   -5.9193    1.1954   -3.8677 H   0  0  0  0  0  0  0  0  0  0  0  0
   -7.4159    3.5189   -0.8331 H   0  0  0  0  0  0  0  0  0  0  0  0
    6.3089   -4.9510   -0.0362 H   0  0  0  0  0  0  0  0  0  0  0  0
    7.9114   -2.4833   -0.7503 H   0  0  0  0  0  0  0  0  0  0  0  0
    6.7088    0.4822   -2.6064 H   0  0  0  0  0  0  0  0  0  0  0  0
  1  2  2  0  0  0  0
  2  3  1  0  0  0  0
  3  4  1  0  0  0  0
  4  5  4  0  0  0  0
  5  6  4  0  0  0  0
  6  7  1  0  0  0  0
  6  8  4  0  0  0  0
  8  9  1  0  0  0  0
  8 10  4  0  0  0  0
 10 11  1  0  0  0  0
  4 12  4  0  0  0  0
 10 12  4  0  0  0  0
  2 13  1  0  0  0  0
 13 14  1  0  0  0  0
 14 15  1  0  0  0  0
 15 16  4  0  0  0  0
 16 17  4  0  0  0  0
 17 18  1  0  0  0  0
 17 19  4  0  0  0  0
 19 20  4  0  0  0  0
 20 21  1  0  0  0  0
 15 22  4  0  0  0  0
 20 22  4  0  0  0  0
 22 23  1  0  0  0  0
 23 24  1  0  0  0  0
 13 25  1  0  0  0  0
 23 25  1  0  0  0  0
 25 26  1  0  0  0  0
 26 27  4  0  0  0  0
 27 28  4  0  0  0  0
 28 29  1  0  0  0  0
 28 30  4  0  0  0  0
 30 31  1  0  0  0  0
 30 32  4  0  0  0  0
 32 33  1  0  0  0  0
 26 34  4  0  0  0  0
 32 34  4  0  0  0  0
  5 35  1  0  0  0  0
  7 36  1  0  0  0  0
  9 37  1  0  0  0  0
 11 38  1  0  0  0  0
 12 39  1  0  0  0  0
 13 40  1  0  0  0  0
 16 41  1  0  0  0  0
 18 42  1  0  0  0  0
 19 43  1  0  0  0  0
 21 44  1  0  0  0  0
 23 45  1  0  0  0  0
 24 46  1  0  0  0  0
 25 47  1  0  0  0  0
 27 48  1  0  0  0  0
 29 49  1  0  0  0  0
 31 50  1  0  0  0  0
 33 51  1  0  0  0  0
 34 52  1  0  0  0  0
 56 57  1  0  0  0  0
 53 59  1  0  0  0  0
 54 59  1  0  0  0  0
 54 60  1  0  0  0  0
 55 61  1  0  0  0  0
 60 61  1  0  0  0  0
 55 62  1  0  0  0  0
 56 62  1  0  0  0  0
 61 62  1  0  0  0  0
 57 63  1  0  0  0  0
 58 64  1  0  0  0  0
 59 65  1  0  0  0  0
 59 66  1  0  0  0  0
 60 66  1  0  0  0  0
 65 66  1  0  0  0  0
 61 67  1  0  0  0  0
 62 68  1  0  0  0  0
 67 68  1  0  0  0  0
 63 69  1  0  0  0  0
 64 69  1  0  0  0  0
 58 70  1  0  0  0  0
 64 70  1  0  0  0  0
 65 71  1  0  0  0  0
 65 72  1  0  0  0  0
 66 72  1  0  0  0  0
 67 73  1  0  0  0  0
 67 74  1  0  0  0  0
 68 74  1  0  0  0  0
 73 74  1  0  0  0  0
 69 75  1  0  0  0  0
 64 76  1  0  0  0  0
 69 76  1  0  0  0  0
 70 76  1  0  0  0  0
 75 76  1  0  0  0  0
 71 77  1  0  0  0  0
 72 78  1  0  0  0  0
 73 79  1  0  0  0  0
 73 80  1  0  0  0  0
 74 80  1  0  0  0  0
 79 80  1  0  0  0  0
 75 81  1  0  0  0  0
 75 82  1  0  0  0  0
 76 82  1  0  0  0  0
 77 83  1  0  0  0  0
 78 84  2  0  0  0  0
 79 85  1  0  0  0  0
 79 86  1  0  0  0  0
 80 86  1  0  0  0  0
 85 86  1  0  0  0  0
 81 87  1  0  0  0  0
 75 88  1  0  0  0  0
 81 88  1  0  0  0  0
 82 88  1  0  0  0  0
 83 89  1  0  0  0  0
 84 90  1  0  0  0  0
 85 91  1  0  0  0  0
 86 92  1  0  0  0  0
 87 93  1  0  0  0  0
 92 93  1  0  0  0  0
 81 94  1  0  0  0  0
 88 94  1  0  0  0  0
 53 95  2  0  0  0  0
 54 95  1  0  0  0  0
 59 95  1  0  0  0  0
 54 96  1  0  0  0  0
 55 96  1  0  0  0  0
 60 96  1  0  0  0  0
 61 96  1  0  0  0  0
 55 97  1  0  0  0  0
 56 97  1  0  0  0  0
 62 97  1  0  0  0  0
 56 98  1  0  0  0  0
 57 98  1  0  0  0  0
 62 98  1  0  0  0  0
 63 98  1  0  0  0  0
 68 98  1  0  0  0  0
 57 99  1  0  0  0  0
 58 99  1  0  0  0  0
 63 99  1  0  0  0  0
 64 99  1  0  0  0  0
 83100  1  0  0  0  0
 84100  1  0  0  0  0
 89100  1  0  0  0  0
 90100  1  0  0  0  0
 84101  1  0  0  0  0
 85101  1  0  0  0  0
 90101  1  0  0  0  0
 91101  1  0  0  0  0
 85102  1  0  0  0  0
 86102  1  0  0  0  0
 91102  1  0  0  0  0
 92102  1  0  0  0  0
 80103  1  0  0  0  0
 86103  1  0  0  0  0
 87103  1  0  0  0  0
 92103  1  0  0  0  0
 93103  1  0  0  0  0
 81104  1  0  0  0  0
 87104  1  0  0  0  0
 93104  1  0  0  0  0
 94104  1  0  0  0  0
 65105  1  0  0  0  0
 71105  1  0  0  0  0
 72105  1  0  0  0  0
 77105  1  0  0  0  0
 83105  1  0  0  0  0
 53106  1  0  0  0  0
 71107  1  0  0  0  0
 77108  1  0  0  0  0
 89109  1  0  0  0  0
 58110  1  0  0  0  0
 70111  1  0  0  0  0
 82112  1  0  0  0  0
M  END
