 xtb: 6.7.1pre (5071a88)
          09012616363D

112155  0     0  0            999 V2000
   -0.6680   -1.0369    4.5330 O   0  0  0  0  0  0  0  0  0  0  0  0
   -0.1325   -0.8210    5.6005 C   0  0  0  0  0  0  0  0  0  0  0  0
   -0.4407   -1.4040    6.7684 O   0  0  0  0  0  0  0  0  0  0  0  0
   -1.3635   -2.4369    6.7952 C   0  0  0  0  0  0  0  0  0  0  0  0
   -2.4596   -2.2996    7.6340 C   0  0  0  0  0  0  0  0  0  0  0  0
   -3.3783   -3.3353    7.7306 C   0  0  0  0  0  0  0  0  0  0  0  0
   -4.4619   -3.2125    8.5347 O   0  0  0  0  0  0  0  0  0  0  0  0
   -3.1833   -4.5059    6.9905 C   0  0  0  0  0  0  0  0  0  0  0  0
   -4.0972   -5.5215    7.1218 O   0  0  0  0  0  0  0  0  0  0  0  0
   -2.0768   -4.6226    6.1510 C   0  0  0  0  0  0  0  0  0  0  0  0
   -1.9431   -5.8024    5.4673 O   0  0  0  0  0  0  0  0  0  0  0  0
   -1.1648   -3.5844    6.0432 C   0  0  0  0  0  0  0  0  0  0  0  0
    0.9914    0.1922    5.8003 C   0  0  0  0  0  0  0  0  0  0  0  0
    2.2163   -0.5246    5.8047 O   0  0  0  0  0  0  0  0  0  0  0  0
    3.3153    0.2482    6.0539 C   0  0  0  0  0  0  0  0  0  0  0  0
    4.5466   -0.2817    5.6937 C   0  0  0  0  0  0  0  0  0  0  0  0
    5.6999    0.4679    5.8759 C   0  0  0  0  0  0  0  0  0  0  0  0
    6.8823   -0.0860    5.5105 O   0  0  0  0  0  0  0  0  0  0  0  0
    5.6194    1.7573    6.3837 C   0  0  0  0  0  0  0  0  0  0  0  0
    4.3876    2.2835    6.7447 C   0  0  0  0  0  0  0  0  0  0  0  0
    4.3416    3.5508    7.2165 O   0  0  0  0  0  0  0  0  0  0  0  0
    3.2247    1.5147    6.6255 C   0  0  0  0  0  0  0  0  0  0  0  0
    1.9146    2.0593    7.1483 C   0  0  0  0  0  0  0  0  0  0  0  0
    1.5524    3.2070    6.3883 O   0  0  0  0  0  0  0  0  0  0  0  0
    0.8446    0.9537    7.1222 C   0  0  0  0  0  0  0  0  0  0  0  0
   -0.5343    1.5088    7.3670 C   0  0  0  0  0  0  0  0  0  0  0  0
   -1.3869    1.8502    6.3224 C   0  0  0  0  0  0  0  0  0  0  0  0
   -2.6520    2.3537    6.5925 C   0  0  0  0  0  0  0  0  0  0  0  0
   -3.5452    2.6866    5.6037 O   0  0  0  0  0  0  0  0  0  0  0  0
   -3.0681    2.5488    7.9048 C   0  0  0  0  0  0  0  0  0  0  0  0
   -4.3072    3.0494    8.2057 O   0  0  0  0  0  0  0  0  0  0  0  0
   -2.2089    2.2206    8.9561 C   0  0  0  0  0  0  0  0  0  0  0  0
   -2.5993    2.3966   10.2387 O   0  0  0  0  0  0  0  0  0  0  0  0
   -0.9519    1.7032    8.6763 C   0  0  0  0  0  0  0  0  0  0  0  0
   -2.5967   -1.4010    8.2107 H   0  0  0  0  0  0  0  0  0  0  0  0
   -4.9783   -4.0293    8.4619 H   0  0  0  0  0  0  0  0  0  0  0  0
   -3.8074   -6.2408    6.5455 H   0  0  0  0  0  0  0  0  0  0  0  0
   -1.1638   -5.7637    4.9023 H   0  0  0  0  0  0  0  0  0  0  0  0
   -0.3057   -3.6680    5.3950 H   0  0  0  0  0  0  0  0  0  0  0  0
    0.9980    0.8861    4.9465 H   0  0  0  0  0  0  0  0  0  0  0  0
    4.6029   -1.2687    5.2724 H   0  0  0  0  0  0  0  0  0  0  0  0
    7.5944    0.5512    5.6380 H   0  0  0  0  0  0  0  0  0  0  0  0
    6.4989    2.3720    6.4983 H   0  0  0  0  0  0  0  0  0  0  0  0
    3.4234    3.8609    7.1764 H   0  0  0  0  0  0  0  0  0  0  0  0
    2.0469    2.3715    8.2011 H   0  0  0  0  0  0  0  0  0  0  0  0
    0.6008    3.3300    6.4483 H   0  0  0  0  0  0  0  0  0  0  0  0
    1.0807    0.2469    7.9247 H   0  0  0  0  0  0  0  0  0  0  0  0
   -1.0962    1.6992    5.2951 H   0  0  0  0  0  0  0  0  0  0  0  0
   -3.1933    2.4214    4.7483 H   0  0  0  0  0  0  0  0  0  0  0  0
   -4.7735    3.1969    7.3743 H   0  0  0  0  0  0  0  0  0  0  0  0
   -3.5066    2.7330   10.2338 H   0  0  0  0  0  0  0  0  0  0  0  0
   -0.3109    1.4406    9.5009 H   0  0  0  0  0  0  0  0  0  0  0  0
   -6.8875   -4.6771    0.6156 B   0  0  0  0  0  0  0  0  0  0  0  0
   -5.1022   -2.2454    0.5940 B   0  0  0  0  0  0  0  0  0  0  0  0
   -3.5789   -2.1930    0.5213 B   0  0  0  0  0  0  0  0  0  0  0  0
    1.0072   -2.8596    0.5481 B   0  0  0  0  0  0  0  0  0  0  0  0
    2.4755   -3.0272    0.1873 B   0  0  0  0  0  0  0  0  0  0  0  0
    5.2553   -3.7723   -0.5222 B   0  0  0  0  0  0  0  0  0  0  0  0
    6.1825   -4.6976   -1.2721 B   0  0  0  0  0  0  0  0  0  0  0  0
   -6.4084   -3.1809    0.5250 B   0  0  0  0  0  0  0  0  0  0  0  0
   -6.7451   -1.6633    0.4353 B   0  0  0  0  0  0  0  0  0  0  0  0
   -2.0500   -2.3124    0.7040 B   0  0  0  0  0  0  0  0  0  0  0  0
   -0.4808   -2.4514    0.6939 B   0  0  0  0  0  0  0  0  0  0  0  0
    4.0075   -2.8820    0.0528 B   0  0  0  0  0  0  0  0  0  0  0  0
    5.7264   -2.2620   -0.0469 B   0  0  0  0  0  0  0  0  0  0  0  0
    6.7571   -3.1403   -0.9735 B   0  0  0  0  0  0  0  0  0  0  0  0
   -7.6412   -0.2885    0.4303 B   0  0  0  0  0  0  0  0  0  0  0  0
   -6.0229   -0.1713    0.2741 B   0  0  0  0  0  0  0  0  0  0  0  0
   -4.4222   -0.5627    0.3928 B   0  0  0  0  0  0  0  0  0  0  0  0
   -2.7256   -0.6688    0.5187 B   0  0  0  0  0  0  0  0  0  0  0  0
   -1.0516   -0.8819    0.9195 B   0  0  0  0  0  0  0  0  0  0  0  0
    0.5151   -1.1385    1.0832 B   0  0  0  0  0  0  0  0  0  0  0  0
    3.1001   -1.4710    0.2717 B   0  0  0  0  0  0  0  0  0  0  0  0
    4.6888   -1.1353    0.6559 B   0  0  0  0  0  0  0  0  0  0  0  0
    6.2506   -0.7729    0.5065 B   0  0  0  0  0  0  0  0  0  0  0  0
    7.7018   -0.3428    1.1983 B   0  0  0  0  0  0  0  0  0  0  0  0
   -6.8959    1.1772    0.2355 B   0  0  0  0  0  0  0  0  0  0  0  0
   -3.4064    0.7581    0.2047 B   0  0  0  0  0  0  0  0  0  0  0  0
   -1.6517    0.5349    0.3116 B   0  0  0  0  0  0  0  0  0  0  0  0
    1.8525   -0.3664    0.6409 B   0  0  0  0  0  0  0  0  0  0  0  0
    3.5868   -0.1297    1.0946 B   0  0  0  0  0  0  0  0  0  0  0  0
    6.9608    0.6173    0.0959 B   0  0  0  0  0  0  0  0  0  0  0  0
    8.3395    1.0489    0.7240 B   0  0  0  0  0  0  0  0  0  0  0  0
   -7.5544    2.7759    0.4428 B   0  0  0  0  0  0  0  0  0  0  0  0
   -6.1573    2.4741   -0.2613 B   0  0  0  0  0  0  0  0  0  0  0  0
   -3.5869    2.2873   -0.1823 B   0  0  0  0  0  0  0  0  0  0  0  0
   -0.8933    1.8109   -0.2462 B   0  0  0  0  0  0  0  0  0  0  0  0
    1.6292    1.0328   -0.1313 B   0  0  0  0  0  0  0  0  0  0  0  0
    3.0064    1.3218    0.8243 B   0  0  0  0  0  0  0  0  0  0  0  0
    6.3323    1.8633   -0.7063 B   0  0  0  0  0  0  0  0  0  0  0  0
   -6.5115    4.0088   -0.1248 B   0  0  0  0  0  0  0  0  0  0  0  0
   -4.8798    3.4263   -0.4202 B   0  0  0  0  0  0  0  0  0  0  0  0
   -3.4209    3.8310   -0.5878 B   0  0  0  0  0  0  0  0  0  0  0  0
   -2.0144    3.2024   -0.5792 B   0  0  0  0  0  0  0  0  0  0  0  0
   -0.4820    3.2757   -0.7165 B   0  0  0  0  0  0  0  0  0  0  0  0
    0.7267    2.3417   -0.5087 B   0  0  0  0  0  0  0  0  0  0  0  0
    2.3376    2.4948   -0.1897 B   0  0  0  0  0  0  0  0  0  0  0  0
    3.8166    2.6293    0.1940 B   0  0  0  0  0  0  0  0  0  0  0  0
    5.3687    2.8710    0.1051 B   0  0  0  0  0  0  0  0  0  0  0  0
    6.0690    4.0759    0.8872 B   0  0  0  0  0  0  0  0  0  0  0  0
    6.1828    5.1621    0.4350 H   0  0  0  0  0  0  0  0  0  0  0  0
    8.2793   -1.1011    1.8779 H   0  0  0  0  0  0  0  0  0  0  0  0
    6.5374    1.9809   -1.8668 H   0  0  0  0  0  0  0  0  0  0  0  0
   -6.9216   -5.4060   -0.3179 H   0  0  0  0  0  0  0  0  0  0  0  0
   -6.7677    5.1474   -0.2332 H   0  0  0  0  0  0  0  0  0  0  0  0
    9.2236    1.8092    0.7988 H   0  0  0  0  0  0  0  0  0  0  0  0
   -8.8136   -0.3697    0.4235 H   0  0  0  0  0  0  0  0  0  0  0  0
    6.5759   -5.6619   -1.8147 H   0  0  0  0  0  0  0  0  0  0  0  0
   -8.5987    2.9772    0.9352 H   0  0  0  0  0  0  0  0  0  0  0  0
    7.8240   -2.7868   -1.3220 H   0  0  0  0  0  0  0  0  0  0  0  0
    6.4805    3.9594    1.9872 H   0  0  0  0  0  0  0  0  0  0  0  0
   -7.3235   -5.1728    1.6039 H   0  0  0  0  0  0  0  0  0  0  0  0
  1  2  2  0  0  0  0
  2  3  1  0  0  0  0
  3  4  1  0  0  0  0
  4  5  4  0  0  0  0
  5  6  4  0  0  0  0
  6  7  1  0  0  0  0
  6  8  4  0  0  0  0
  8  9  1  0  0  0  0
  8 10  4  0  0  0  0
 10 11  1  0  0  0  0
  4 12  4  0  0  0  0
 10 12  4  0  0  0  0
  2 13  1  0  0  0  0
 13 14  1  0  0  0  0
 14 15  1  0  0  0  0
 15 16  4  0  0  0  0
 16 17  4  0  0  0  0
 17 18  1  0  0  0  0
 17 19  4  0  0  0  0
 19 20  4  0  0  0  0
 20 21  1  0  0  0  0
 15 22  4  0  0  0  0
 20 22  4  0  0  0  0
 22 23  1  0  0  0  0
 23 24  1  0  0  0  0
 13 25  1  0  0  0  0
 23 25  1  0  0  0  0
 25 26  1  0  0  0  0
 26 27  4  0  0  0  0
 27 28  4  0  0  0  0
 28 29  1  0  0  0  0
 28 30  4  0  0  0  0
 30 31  1  0  0  0  0
 30 32  4  0  0  0  0
 32 33  1  0  0  0  0
 26 34  4  0  0  0  0
 32 34  4  0  0  0  0
  5 35  1  0  0  0  0
  7 36  1  0  0  0  0
  9 37  1  0  0  0  0
 11 38  1  0  0  0  0
 12 39  1  0  0  0  0
 13 40  1  0  0  0  0
 16 41  1  0  0  0  0
 18 42  1  0  0  0  0
 19 43  1  0  0  0  0
 21 44  1  0  0  0  0
 23 45  1  0  0  0  0
 24 46  1  0  0  0  0
 25 47  1  0  0  0  0
 27 48  1  0  0  0  0
 29 49  1  0  0  0  0
 31 50  1  0  0  0  0
 33 51  1  0  0  0  0
 34 52  1  0  0  0  0
 54 55  1  0  0  0  0
 56 57  2  0  0  0  0
 58 59  2  0  0  0  0
 53 60  1  0  0  0  0
 54 60  1  0  0  0  0
 54 61  1  0  0  0  0
 60 61  1  0  0  0  0
 55 62  1  0  0  0  0
 56 63  1  0  0  0  0
 62 63  1  0  0  0  0
 57 64  1  0  0  0  0
 58 64  1  0  0  0  0
 58 65  1  0  0  0  0
 64 65  1  0  0  0  0
 58 66  1  0  0  0  0
 59 66  1  0  0  0  0
 65 66  1  0  0  0  0
 61 67  1  0  0  0  0
 61 68  1  0  0  0  0
 67 68  1  0  0  0  0
 54 69  1  0  0  0  0
 55 69  1  0  0  0  0
 68 69  1  0  0  0  0
 55 70  1  0  0  0  0
 62 70  1  0  0  0  0
 69 70  1  0  0  0  0
 62 71  1  0  0  0  0
 63 71  1  0  0  0  0
 70 71  1  0  0  0  0
 56 72  1  0  0  0  0
 63 72  1  0  0  0  0
 71 72  1  0  0  0  0
 57 73  1  0  0  0  0
 64 73  1  0  0  0  0
 64 74  1  0  0  0  0
 65 74  1  0  0  0  0
 73 74  1  0  0  0  0
 65 75  1  0  0  0  0
 74 75  1  0  0  0  0
 75 76  1  0  0  0  0
 67 77  1  0  0  0  0
 68 77  1  0  0  0  0
 69 78  1  0  0  0  0
 70 78  1  0  0  0  0
 70 79  1  0  0  0  0
 71 79  1  0  0  0  0
 78 79  1  0  0  0  0
 72 80  1  0  0  0  0
 73 80  1  0  0  0  0
 73 81  1  0  0  0  0
 74 81  1  0  0  0  0
 80 81  1  0  0  0  0
 75 82  1  0  0  0  0
 76 82  1  0  0  0  0
 76 83  1  0  0  0  0
 82 83  1  0  0  0  0
 77 84  1  0  0  0  0
 77 85  1  0  0  0  0
 84 85  1  0  0  0  0
 78 86  1  0  0  0  0
 79 87  1  0  0  0  0
 80 88  1  0  0  0  0
 81 89  1  0  0  0  0
 88 89  1  0  0  0  0
 82 90  1  0  0  0  0
 84 91  1  0  0  0  0
 85 91  1  0  0  0  0
 85 92  1  0  0  0  0
 86 92  1  0  0  0  0
 91 92  1  0  0  0  0
 86 93  1  0  0  0  0
 92 93  1  0  0  0  0
 86 94  1  0  0  0  0
 87 94  1  0  0  0  0
 93 94  1  0  0  0  0
 87 95  1  0  0  0  0
 94 95  1  0  0  0  0
 87 96  1  0  0  0  0
 88 96  1  0  0  0  0
 95 96  1  0  0  0  0
 88 97  1  0  0  0  0
 89 97  1  0  0  0  0
 96 97  1  0  0  0  0
 89 98  1  0  0  0  0
 97 98  1  0  0  0  0
 90 99  1  0  0  0  0
 98 99  1  0  0  0  0
 99100  1  0  0  0  0
100101  1  0  0  0  0
 76102  1  0  0  0  0
 90103  1  0  0  0  0
 53104  1  0  0  0  0
 91105  1  0  0  0  0
 83106  1  0  0  0  0
 67107  1  0  0  0  0
 59108  1  0  0  0  0
 84109  1  0  0  0  0
 66110  1  0  0  0  0
100111  1  0  0  0  0
 53112  1  0  0  0  0
M  END
