 xtb: 6.7.1pre (5071a88)
          08312620213D

112145  0     0  0            999 V2000
    0.9509   -0.9381    1.5235 O   0  0  0  0  0  0  0  0  0  0  0  0
    0.9231   -0.1365    2.4529 C   0  0  0  0  0  0  0  0  0  0  0  0
    1.7975   -0.0944    3.5333 O   0  0  0  0  0  0  0  0  0  0  0  0
    2.7266   -1.1361    3.5185 C   0  0  0  0  0  0  0  0  0  0  0  0
    2.4472   -2.2931    4.2499 C   0  0  0  0  0  0  0  0  0  0  0  0
    3.3924   -3.3074    4.2637 C   0  0  0  0  0  0  0  0  0  0  0  0
    3.1414   -4.4511    4.9648 O   0  0  0  0  0  0  0  0  0  0  0  0
    4.5912   -3.1637    3.5731 C   0  0  0  0  0  0  0  0  0  0  0  0
    5.5039   -4.1839    3.6075 O   0  0  0  0  0  0  0  0  0  0  0  0
    4.8621   -1.9981    2.8607 C   0  0  0  0  0  0  0  0  0  0  0  0
    6.0604   -1.9168    2.2070 O   0  0  0  0  0  0  0  0  0  0  0  0
    3.9336   -0.9645    2.8319 C   0  0  0  0  0  0  0  0  0  0  0  0
   -0.1264    0.9590    2.5806 C   0  0  0  0  0  0  0  0  0  0  0  0
    0.5850    2.2052    2.6576 O   0  0  0  0  0  0  0  0  0  0  0  0
   -0.2298    3.2895    2.8472 C   0  0  0  0  0  0  0  0  0  0  0  0
    0.3174    4.5309    2.5202 C   0  0  0  0  0  0  0  0  0  0  0  0
   -0.4527    5.6803    2.6547 C   0  0  0  0  0  0  0  0  0  0  0  0
    0.1196    6.8728    2.3225 O   0  0  0  0  0  0  0  0  0  0  0  0
   -1.7680    5.6066    3.0946 C   0  0  0  0  0  0  0  0  0  0  0  0
   -2.2993    4.3615    3.4185 C   0  0  0  0  0  0  0  0  0  0  0  0
   -3.6187    4.3188    3.7762 O   0  0  0  0  0  0  0  0  0  0  0  0
   -1.5317    3.1907    3.3505 C   0  0  0  0  0  0  0  0  0  0  0  0
   -2.0780    1.8704    3.8253 C   0  0  0  0  0  0  0  0  0  0  0  0
   -3.1923    1.5645    2.9797 O   0  0  0  0  0  0  0  0  0  0  0  0
   -1.0029    0.7625    3.8250 C   0  0  0  0  0  0  0  0  0  0  0  0
   -1.6104   -0.6171    4.0426 C   0  0  0  0  0  0  0  0  0  0  0  0
   -1.9674   -1.4686    2.9780 C   0  0  0  0  0  0  0  0  0  0  0  0
   -2.5213   -2.7203    3.2414 C   0  0  0  0  0  0  0  0  0  0  0  0
   -2.8575   -3.5863    2.2389 O   0  0  0  0  0  0  0  0  0  0  0  0
   -2.7514   -3.1250    4.5490 C   0  0  0  0  0  0  0  0  0  0  0  0
   -3.3047   -4.3472    4.8152 O   0  0  0  0  0  0  0  0  0  0  0  0
   -2.4189   -2.2894    5.6030 C   0  0  0  0  0  0  0  0  0  0  0  0
   -2.6461   -2.6824    6.8891 O   0  0  0  0  0  0  0  0  0  0  0  0
   -1.8505   -1.0447    5.3632 C   0  0  0  0  0  0  0  0  0  0  0  0
    1.5156   -2.4056    4.7946 H   0  0  0  0  0  0  0  0  0  0  0  0
    3.9358   -5.0052    4.8249 H   0  0  0  0  0  0  0  0  0  0  0  0
    6.2478   -3.8572    3.0607 H   0  0  0  0  0  0  0  0  0  0  0  0
    6.0917   -1.0664    1.7343 H   0  0  0  0  0  0  0  0  0  0  0  0
    4.1219   -0.0436    2.2918 H   0  0  0  0  0  0  0  0  0  0  0  0
   -0.7151    0.9489    1.6527 H   0  0  0  0  0  0  0  0  0  0  0  0
    1.3370    4.6025    2.1528 H   0  0  0  0  0  0  0  0  0  0  0  0
   -0.5305    7.5799    2.4707 H   0  0  0  0  0  0  0  0  0  0  0  0
   -2.3923    6.4899    3.1756 H   0  0  0  0  0  0  0  0  0  0  0  0
   -3.9528    3.4459    3.4856 H   0  0  0  0  0  0  0  0  0  0  0  0
   -2.4664    1.9912    4.8450 H   0  0  0  0  0  0  0  0  0  0  0  0
   -3.6275    0.7761    3.3563 H   0  0  0  0  0  0  0  0  0  0  0  0
   -0.3481    0.9622    4.6886 H   0  0  0  0  0  0  0  0  0  0  0  0
   -1.8190   -1.1612    1.9459 H   0  0  0  0  0  0  0  0  0  0  0  0
   -2.4853   -3.2492    1.4041 H   0  0  0  0  0  0  0  0  0  0  0  0
   -3.4284   -4.7531    3.9323 H   0  0  0  0  0  0  0  0  0  0  0  0
   -3.0141   -3.5864    6.8099 H   0  0  0  0  0  0  0  0  0  0  0  0
   -1.5944   -0.4169    6.2144 H   0  0  0  0  0  0  0  0  0  0  0  0
   -7.5000   -4.5000    0.0000 B   0  0  0  0  0  0  0  0  0  0  0  0
   -4.5000   -4.5000    0.0000 B   0  0  0  0  0  0  0  0  0  0  0  0
   -1.5000   -4.5000    0.0000 B   0  0  0  0  0  0  0  0  0  0  0  0
    1.5000   -4.5000    0.0000 B   0  0  0  0  0  0  0  0  0  0  0  0
    4.5000   -4.5000    0.0000 B   0  0  0  0  0  0  0  0  0  0  0  0
    7.5000   -4.5000    0.0000 B   0  0  0  0  0  0  0  0  0  0  0  0
   -7.5000   -3.0000    0.0000 B   0  0  0  0  0  0  0  0  0  0  0  0
   -4.5000   -3.0000    0.0000 B   0  0  0  0  0  0  0  0  0  0  0  0
   -1.5000   -3.0000    0.0000 B   0  0  0  0  0  0  0  0  0  0  0  0
    1.5000   -3.0000    0.0000 B   0  0  0  0  0  0  0  0  0  0  0  0
    4.5000   -3.0000    0.0000 B   0  0  0  0  0  0  0  0  0  0  0  0
    7.5000   -3.0000    0.0000 B   0  0  0  0  0  0  0  0  0  0  0  0
   -7.5000   -1.5000    0.0000 B   0  0  0  0  0  0  0  0  0  0  0  0
   -4.5000   -1.5000    0.0000 B   0  0  0  0  0  0  0  0  0  0  0  0
   -1.5000   -1.5000    0.0000 B   0  0  0  0  0  0  0  0  0  0  0  0
    1.5000   -1.5000    0.0000 B   0  0  0  0  0  0  0  0  0  0  0  0
    4.5000   -1.5000    0.0000 B   0  0  0  0  0  0  0  0  0  0  0  0
    7.5000   -1.5000    0.0000 B   0  0  0  0  0  0  0  0  0  0  0  0
   -7.5000    0.0000    0.0000 B   0  0  0  0  0  0  0  0  0  0  0  0
   -4.5000    0.0000    0.0000 B   0  0  0  0  0  0  0  0  0  0  0  0
   -1.5000    0.0000    0.0000 B   0  0  0  0  0  0  0  0  0  0  0  0
    1.5000    0.0000    0.0000 B   0  0  0  0  0  0  0  0  0  0  0  0
    4.5000    0.0000    0.0000 B   0  0  0  0  0  0  0  0  0  0  0  0
    7.5000    0.0000    0.0000 B   0  0  0  0  0  0  0  0  0  0  0  0
   -7.5000    1.5000    0.0000 B   0  0  0  0  0  0  0  0  0  0  0  0
   -4.5000    1.5000    0.0000 B   0  0  0  0  0  0  0  0  0  0  0  0
   -1.5000    1.5000    0.0000 B   0  0  0  0  0  0  0  0  0  0  0  0
    1.5000    1.5000    0.0000 B   0  0  0  0  0  0  0  0  0  0  0  0
    4.5000    1.5000    0.0000 B   0  0  0  0  0  0  0  0  0  0  0  0
    7.5000    1.5000    0.0000 B   0  0  0  0  0  0  0  0  0  0  0  0
   -7.5000    3.0000    0.0000 B   0  0  0  0  0  0  0  0  0  0  0  0
   -4.5000    3.0000    0.0000 B   0  0  0  0  0  0  0  0  0  0  0  0
   -1.5000    3.0000    0.0000 B   0  0  0  0  0  0  0  0  0  0  0  0
    1.5000    3.0000    0.0000 B   0  0  0  0  0  0  0  0  0  0  0  0
    4.5000    3.0000    0.0000 B   0  0  0  0  0  0  0  0  0  0  0  0
    7.5000    3.0000    0.0000 B   0  0  0  0  0  0  0  0  0  0  0  0
   -7.5000    4.5000    0.0000 B   0  0  0  0  0  0  0  0  0  0  0  0
   -4.5000    4.5000    0.0000 B   0  0  0  0  0  0  0  0  0  0  0  0
   -1.5000    4.5000    0.0000 B   0  0  0  0  0  0  0  0  0  0  0  0
    1.5000    4.5000    0.0000 B   0  0  0  0  0  0  0  0  0  0  0  0
    4.5000    4.5000    0.0000 B   0  0  0  0  0  0  0  0  0  0  0  0
    7.5000    4.5000    0.0000 B   0  0  0  0  0  0  0  0  0  0  0  0
   -6.0000   -3.7500    0.0000 B   0  0  0  0  0  0  0  0  0  0  0  0
   -3.0000   -3.7500    0.0000 B   0  0  0  0  0  0  0  0  0  0  0  0
    0.0000   -3.7500    0.0000 B   0  0  0  0  0  0  0  0  0  0  0  0
    3.0000   -3.7500    0.0000 B   0  0  0  0  0  0  0  0  0  0  0  0
    6.0000   -3.7500    0.0000 B   0  0  0  0  0  0  0  0  0  0  0  0
   -6.0000    3.7500    0.0000 B   0  0  0  0  0  0  0  0  0  0  0  0
   -3.0000    3.7500    0.0000 B   0  0  0  0  0  0  0  0  0  0  0  0
    0.0000    3.7500    0.0000 B   0  0  0  0  0  0  0  0  0  0  0  0
    3.0000    3.7500    0.0000 B   0  0  0  0  0  0  0  0  0  0  0  0
    6.0000    3.7500    0.0000 B   0  0  0  0  0  0  0  0  0  0  0  0
   -6.0000    0.0000    0.0000 B   0  0  0  0  0  0  0  0  0  0  0  0
   -8.6000   -4.5000    0.0000 H   0  0  0  0  0  0  0  0  0  0  0  0
   -8.6000   -1.5000    0.0000 H   0  0  0  0  0  0  0  0  0  0  0  0
   -8.6000    1.5000    0.0000 H   0  0  0  0  0  0  0  0  0  0  0  0
   -8.6000    4.5000    0.0000 H   0  0  0  0  0  0  0  0  0  0  0  0
    8.6000   -4.5000    0.0000 H   0  0  0  0  0  0  0  0  0  0  0  0
    8.6000   -1.5000    0.0000 H   0  0  0  0  0  0  0  0  0  0  0  0
    8.6000    1.5000    0.0000 H   0  0  0  0  0  0  0  0  0  0  0  0
  1  2  4  0  0  0  0
  2  3  1  0  0  0  0
  3  4  1  0  0  0  0
  4  5  4  0  0  0  0
  5  6  4  0  0  0  0
  6  7  1  0  0  0  0
  6  8  4  0  0  0  0
  8  9  1  0  0  0  0
  8 10  4  0  0  0  0
 10 11  1  0  0  0  0
  4 12  4  0  0  0  0
 10 12  4  0  0  0  0
  2 13  1  0  0  0  0
 13 14  1  0  0  0  0
 14 15  1  0  0  0  0
 15 16  4  0  0  0  0
 16 17  4  0  0  0  0
 17 18  1  0  0  0  0
 17 19  4  0  0  0  0
 19 20  4  0  0  0  0
 20 21  1  0  0  0  0
 15 22  4  0  0  0  0
 20 22  4  0  0  0  0
 22 23  1  0  0  0  0
 23 24  1  0  0  0  0
 13 25  1  0  0  0  0
 23 25  1  0  0  0  0
 25 26  1  0  0  0  0
 26 27  4  0  0  0  0
 27 28  4  0  0  0  0
 28 29  1  0  0  0  0
 28 30  4  0  0  0  0
 30 31  1  0  0  0  0
 30 32  4  0  0  0  0
 32 33  1  0  0  0  0
 26 34  4  0  0  0  0
 32 34  4  0  0  0  0
  5 35  1  0  0  0  0
  7 36  1  0  0  0  0
  9 37  1  0  0  0  0
 11 38  1  0  0  0  0
 12 39  1  0  0  0  0
 13 40  1  0  0  0  0
 16 41  1  0  0  0  0
 18 42  1  0  0  0  0
 19 43  1  0  0  0  0
 21 44  1  0  0  0  0
 23 45  1  0  0  0  0
 24 46  1  0  0  0  0
 25 47  1  0  0  0  0
 27 48  1  0  0  0  0
 29 49  1  0  0  0  0
 31 50  1  0  0  0  0
 33 51  1  0  0  0  0
 34 52  1  0  0  0  0
 53 59  1  0  0  0  0
 54 60  1  0  0  0  0
 55 61  1  0  0  0  0
 56 62  1  0  0  0  0
 57 63  1  0  0  0  0
 58 64  1  0  0  0  0
 59 65  1  0  0  0  0
 60 66  1  0  0  0  0
 61 67  1  0  0  0  0
  1 68  1  0  0  0  0
 62 68  1  0  0  0  0
 63 69  1  0  0  0  0
 64 70  1  0  0  0  0
 65 71  1  0  0  0  0
 66 72  1  0  0  0  0
 67 73  2  0  0  0  0
 68 74  1  0  0  0  0
 69 75  2  0  0  0  0
 70 76  1  0  0  0  0
 71 77  1  0  0  0  0
 72 78  1  0  0  0  0
 73 79  2  0  0  0  0
 74 80  2  0  0  0  0
 75 81  2  0  0  0  0
 76 82  2  0  0  0  0
 77 83  1  0  0  0  0
 78 84  1  0  0  0  0
 79 85  1  0  0  0  0
 80 86  1  0  0  0  0
 81 87  1  0  0  0  0
 82 88  1  0  0  0  0
 83 89  1  0  0  0  0
 84 90  1  0  0  0  0
 85 91  1  0  0  0  0
 86 92  1  0  0  0  0
 87 93  1  0  0  0  0
 88 94  2  0  0  0  0
 53 95  1  0  0  0  0
 54 95  1  0  0  0  0
 59 95  1  0  0  0  0
 60 95  1  0  0  0  0
 54 96  1  0  0  0  0
 55 96  1  0  0  0  0
 60 96  1  0  0  0  0
 61 96  1  0  0  0  0
 55 97  1  0  0  0  0
 56 97  1  0  0  0  0
 61 97  1  0  0  0  0
 62 97  1  0  0  0  0
 56 98  1  0  0  0  0
 57 98  1  0  0  0  0
 62 98  1  0  0  0  0
 63 98  1  0  0  0  0
 57 99  1  0  0  0  0
 58 99  1  0  0  0  0
 63 99  1  0  0  0  0
 64 99  1  0  0  0  0
 83100  1  0  0  0  0
 84100  1  0  0  0  0
 89100  1  0  0  0  0
 90100  1  0  0  0  0
 84101  1  0  0  0  0
 85101  1  0  0  0  0
 90101  1  0  0  0  0
 91101  1  0  0  0  0
 85102  1  0  0  0  0
 86102  1  0  0  0  0
 91102  1  0  0  0  0
 92102  1  0  0  0  0
 86103  1  0  0  0  0
 87103  1  0  0  0  0
 92103  1  0  0  0  0
 93103  1  0  0  0  0
 87104  1  0  0  0  0
 88104  1  0  0  0  0
 93104  1  0  0  0  0
 94104  1  0  0  0  0
 65105  1  0  0  0  0
 66105  1  0  0  0  0
 71105  1  0  0  0  0
 72105  1  0  0  0  0
 77105  1  0  0  0  0
 78105  1  0  0  0  0
 53106  1  0  0  0  0
 65107  1  0  0  0  0
 77108  1  0  0  0  0
 89109  1  0  0  0  0
 58110  1  0  0  0  0
 70111  1  0  0  0  0
 82112  1  0  0  0  0
M  END
