 xtb: 6.7.1pre (5071a88)
          09022615213D

107146  0     0  0            999 V2000
   -0.3373   -1.5101    4.1902 O   0  0  0  0  0  0  0  0  0  0  0  0
   -0.1279   -1.1397    5.3371 C   0  0  0  0  0  0  0  0  0  0  0  0
   -0.7827   -1.5246    6.4373 O   0  0  0  0  0  0  0  0  0  0  0  0
   -1.7614   -2.4989    6.4558 C   0  0  0  0  0  0  0  0  0  0  0  0
   -2.2960   -2.7631    7.7134 C   0  0  0  0  0  0  0  0  0  0  0  0
   -3.2656   -3.7419    7.8565 C   0  0  0  0  0  0  0  0  0  0  0  0
   -3.7900   -4.0116    9.0773 O   0  0  0  0  0  0  0  0  0  0  0  0
   -3.7054   -4.4544    6.7382 C   0  0  0  0  0  0  0  0  0  0  0  0
   -4.6664   -5.4247    6.9054 O   0  0  0  0  0  0  0  0  0  0  0  0
   -3.1710   -4.1736    5.4841 C   0  0  0  0  0  0  0  0  0  0  0  0
   -3.6388   -4.8963    4.4277 O   0  0  0  0  0  0  0  0  0  0  0  0
   -2.1997   -3.1948    5.3379 C   0  0  0  0  0  0  0  0  0  0  0  0
    0.8463   -0.0082    5.5514 C   0  0  0  0  0  0  0  0  0  0  0  0
    2.1725   -0.5019    5.4154 O   0  0  0  0  0  0  0  0  0  0  0  0
    3.1054    0.4870    5.3858 C   0  0  0  0  0  0  0  0  0  0  0  0
    4.3588    0.1649    4.8834 C   0  0  0  0  0  0  0  0  0  0  0  0
    5.3183    1.1580    4.7531 C   0  0  0  0  0  0  0  0  0  0  0  0
    6.5372    0.8048    4.2744 O   0  0  0  0  0  0  0  0  0  0  0  0
    5.0044    2.4774    5.0518 C   0  0  0  0  0  0  0  0  0  0  0  0
    3.7524    2.7923    5.5627 C   0  0  0  0  0  0  0  0  0  0  0  0
    3.4588    4.0871    5.8100 O   0  0  0  0  0  0  0  0  0  0  0  0
    2.8124    1.7849    5.8019 C   0  0  0  0  0  0  0  0  0  0  0  0
    1.5237    2.1252    6.5208 C   0  0  0  0  0  0  0  0  0  0  0  0
    0.8150    3.0575    5.7218 O   0  0  0  0  0  0  0  0  0  0  0  0
    0.7257    0.8346    6.8173 C   0  0  0  0  0  0  0  0  0  0  0  0
   -0.6964    1.1180    7.2196 C   0  0  0  0  0  0  0  0  0  0  0  0
   -1.6719    1.4217    6.2712 C   0  0  0  0  0  0  0  0  0  0  0  0
   -2.9819    1.6414    6.6711 C   0  0  0  0  0  0  0  0  0  0  0  0
   -4.0050    1.9168    5.8167 O   0  0  0  0  0  0  0  0  0  0  0  0
   -3.3198    1.5760    8.0227 C   0  0  0  0  0  0  0  0  0  0  0  0
   -4.6111    1.7841    8.4367 O   0  0  0  0  0  0  0  0  0  0  0  0
   -2.3417    1.2936    8.9736 C   0  0  0  0  0  0  0  0  0  0  0  0
   -2.6650    1.2360   10.2880 O   0  0  0  0  0  0  0  0  0  0  0  0
   -1.0353    1.0695    8.5628 C   0  0  0  0  0  0  0  0  0  0  0  0
   -1.9578   -2.2136    8.5739 H   0  0  0  0  0  0  0  0  0  0  0  0
   -4.4403   -4.7192    8.9634 H   0  0  0  0  0  0  0  0  0  0  0  0
   -4.8371   -5.7965    6.0304 H   0  0  0  0  0  0  0  0  0  0  0  0
   -3.2627   -4.5357    3.6060 H   0  0  0  0  0  0  0  0  0  0  0  0
   -1.7984   -2.9964    4.3585 H   0  0  0  0  0  0  0  0  0  0  0  0
    0.6643    0.6591    4.6622 H   0  0  0  0  0  0  0  0  0  0  0  0
    4.5757   -0.8492    4.5965 H   0  0  0  0  0  0  0  0  0  0  0  0
    7.0837    1.5889    4.1529 H   0  0  0  0  0  0  0  0  0  0  0  0
    5.7149    3.2728    4.8950 H   0  0  0  0  0  0  0  0  0  0  0  0
    2.4955    4.1720    5.8758 H   0  0  0  0  0  0  0  0  0  0  0  0
    1.7714    2.6012    7.4868 H   0  0  0  0  0  0  0  0  0  0  0  0
   -0.0955    3.1252    6.0339 H   0  0  0  0  0  0  0  0  0  0  0  0
    1.2276    0.3104    7.6352 H   0  0  0  0  0  0  0  0  0  0  0  0
   -1.4420    1.4617    5.2173 H   0  0  0  0  0  0  0  0  0  0  0  0
   -3.7020    2.0761    4.9066 H   0  0  0  0  0  0  0  0  0  0  0  0
   -5.1336    1.9437    7.6394 H   0  0  0  0  0  0  0  0  0  0  0  0
   -3.6183    1.3835   10.3612 H   0  0  0  0  0  0  0  0  0  0  0  0
   -0.2985    0.8379    9.3137 H   0  0  0  0  0  0  0  0  0  0  0  0
   -4.5624   -2.0761    2.6296 B   0  0  0  0  0  0  0  0  0  0  0  0
   -4.3355   -0.9554    1.5231 B   0  0  0  0  0  0  0  0  0  0  0  0
   -4.2345    0.0303    0.1928 B   0  0  0  0  0  0  0  0  0  0  0  0
   -3.2523   -2.3510    1.7398 B   0  0  0  0  0  0  0  0  0  0  0  0
   -2.7477    0.3636    0.5333 B   0  0  0  0  0  0  0  0  0  0  0  0
   -3.9769    0.7523    1.8302 B   0  0  0  0  0  0  0  0  0  0  0  0
   -4.5578    1.9675    2.7019 B   0  0  0  0  0  0  0  0  0  0  0  0
   -3.9514    3.4932    2.6969 B   0  0  0  0  0  0  0  0  0  0  0  0
   -2.3674    0.7905    2.0929 B   0  0  0  0  0  0  0  0  0  0  0  0
   -2.5282    3.7706    3.4462 B   0  0  0  0  0  0  0  0  0  0  0  0
   -2.1210   -3.5563    1.6716 B   0  0  0  0  0  0  0  0  0  0  0  0
   -1.7521   -2.1032    1.1296 B   0  0  0  0  0  0  0  0  0  0  0  0
   -1.4268   -0.4925    1.0525 B   0  0  0  0  0  0  0  0  0  0  0  0
   -0.5115   -3.1325    1.3420 B   0  0  0  0  0  0  0  0  0  0  0  0
    0.1237   -0.0993    1.4008 B   0  0  0  0  0  0  0  0  0  0  0  0
   -0.9464    0.2177    2.6399 B   0  0  0  0  0  0  0  0  0  0  0  0
   -1.2139    1.8749    2.5266 B   0  0  0  0  0  0  0  0  0  0  0  0
   -1.2622    3.4608    2.5141 B   0  0  0  0  0  0  0  0  0  0  0  0
    0.3102    1.1806    2.6851 B   0  0  0  0  0  0  0  0  0  0  0  0
   -0.0754    4.4442    1.9539 B   0  0  0  0  0  0  0  0  0  0  0  0
    0.8165   -4.1086    1.5868 B   0  0  0  0  0  0  0  0  0  0  0  0
    1.0574   -2.5538    1.2497 B   0  0  0  0  0  0  0  0  0  0  0  0
    1.4820   -1.0226    1.1437 B   0  0  0  0  0  0  0  0  0  0  0  0
    2.2654   -3.4240    1.9861 B   0  0  0  0  0  0  0  0  0  0  0  0
    2.9482   -0.3496    1.3199 B   0  0  0  0  0  0  0  0  0  0  0  0
    1.6347    0.5341    1.7455 B   0  0  0  0  0  0  0  0  0  0  0  0
    1.7068    2.0587    2.5018 B   0  0  0  0  0  0  0  0  0  0  0  0
    1.1805    3.4891    2.0070 B   0  0  0  0  0  0  0  0  0  0  0  0
    2.9517    1.5333    1.5184 B   0  0  0  0  0  0  0  0  0  0  0  0
    1.7306    2.8878    0.5426 B   0  0  0  0  0  0  0  0  0  0  0  0
    3.3443   -3.8682    3.1904 B   0  0  0  0  0  0  0  0  0  0  0  0
    3.7682   -2.7809    2.0494 B   0  0  0  0  0  0  0  0  0  0  0  0
    4.2751   -1.3606    1.4706 B   0  0  0  0  0  0  0  0  0  0  0  0
    4.7245   -3.0471    3.2746 B   0  0  0  0  0  0  0  0  0  0  0  0
    5.6296   -0.6551    0.8236 B   0  0  0  0  0  0  0  0  0  0  0  0
    4.4769    0.3017    1.4585 B   0  0  0  0  0  0  0  0  0  0  0  0
    4.5372    2.0832    1.2731 B   0  0  0  0  0  0  0  0  0  0  0  0
    3.3353    2.8587    0.3935 B   0  0  0  0  0  0  0  0  0  0  0  0
    5.8475    1.0909    1.0975 B   0  0  0  0  0  0  0  0  0  0  0  0
    4.8260    3.2165    0.1902 B   0  0  0  0  0  0  0  0  0  0  0  0
   -4.9306   -2.3851    3.6990 H   0  0  0  0  0  0  0  0  0  0  0  0
   -5.4984   -1.5504    1.9048 H   0  0  0  0  0  0  0  0  0  0  0  0
   -5.0884    0.1745   -0.6070 H   0  0  0  0  0  0  0  0  0  0  0  0
   -5.4014    1.7417    3.5081 H   0  0  0  0  0  0  0  0  0  0  0  0
   -4.5777    4.3624    2.2006 H   0  0  0  0  0  0  0  0  0  0  0  0
   -2.4879    4.0574    4.5933 H   0  0  0  0  0  0  0  0  0  0  0  0
   -2.3831   -4.6964    1.8037 H   0  0  0  0  0  0  0  0  0  0  0  0
   -0.1985    5.5430    1.5481 H   0  0  0  0  0  0  0  0  0  0  0  0
    0.7099   -5.2736    1.5315 H   0  0  0  0  0  0  0  0  0  0  0  0
    0.9941    2.5403   -0.3177 H   0  0  0  0  0  0  0  0  0  0  0  0
    3.0741   -4.7258    3.9378 H   0  0  0  0  0  0  0  0  0  0  0  0
    5.7264   -2.8691    3.8409 H   0  0  0  0  0  0  0  0  0  0  0  0
    6.5835   -1.1705    0.3854 H   0  0  0  0  0  0  0  0  0  0  0  0
    6.9742    1.3994    1.1886 H   0  0  0  0  0  0  0  0  0  0  0  0
    5.6843    3.8337   -0.3041 H   0  0  0  0  0  0  0  0  0  0  0  0
  1  2  2  0  0  0  0
  2  3  1  0  0  0  0
  3  4  1  0  0  0  0
  4  5  4  0  0  0  0
  5  6  4  0  0  0  0
  6  7  1  0  0  0  0
  6  8  4  0  0  0  0
  8  9  1  0  0  0  0
  8 10  4  0  0  0  0
 10 11  1  0  0  0  0
  4 12  4  0  0  0  0
 10 12  4  0  0  0  0
  2 13  1  0  0  0  0
 13 14  1  0  0  0  0
 14 15  1  0  0  0  0
 15 16  4  0  0  0  0
 16 17  4  0  0  0  0
 17 18  1  0  0  0  0
 17 19  4  0  0  0  0
 19 20  4  0  0  0  0
 20 21  1  0  0  0  0
 15 22  4  0  0  0  0
 20 22  4  0  0  0  0
 22 23  1  0  0  0  0
 23 24  1  0  0  0  0
 13 25  1  0  0  0  0
 23 25  1  0  0  0  0
 25 26  1  0  0  0  0
 26 27  4  0  0  0  0
 27 28  4  0  0  0  0
 28 29  1  0  0  0  0
 28 30  4  0  0  0  0
 30 31  1  0  0  0  0
 30 32  4  0  0  0  0
 32 33  1  0  0  0  0
 26 34  4  0  0  0  0
 32 34  4  0  0  0  0
  5 35  1  0  0  0  0
  7 36  1  0  0  0  0
  9 37  1  0  0  0  0
 11 38  1  0  0  0  0
 12 39  1  0  0  0  0
 13 40  1  0  0  0  0
 16 41  1  0  0  0  0
 18 42  1  0  0  0  0
 19 43  1  0  0  0  0
 21 44  1  0  0  0  0
 23 45  1  0  0  0  0
 24 46  1  0  0  0  0
 25 47  1  0  0  0  0
 27 48  1  0  0  0  0
 29 49  1  0  0  0  0
 31 50  1  0  0  0  0
 33 51  1  0  0  0  0
 34 52  1  0  0  0  0
 53 54  1  0  0  0  0
 54 55  1  0  0  0  0
 53 56  1  0  0  0  0
 54 56  1  0  0  0  0
 55 57  1  0  0  0  0
 54 58  1  0  0  0  0
 55 58  1  0  0  0  0
 57 58  1  0  0  0  0
 58 59  1  0  0  0  0
 59 60  1  0  0  0  0
 57 61  1  0  0  0  0
 58 61  1  0  0  0  0
 60 62  1  0  0  0  0
 56 63  1  0  0  0  0
 56 64  1  0  0  0  0
 63 64  1  0  0  0  0
 57 65  1  0  0  0  0
 61 65  1  0  0  0  0
 64 65  1  0  0  0  0
 63 66  1  0  0  0  0
 64 66  1  0  0  0  0
 65 67  1  0  0  0  0
 61 68  1  0  0  0  0
 65 68  1  0  0  0  0
 67 68  1  0  0  0  0
 61 69  1  0  0  0  0
 68 69  1  0  0  0  0
 62 70  1  0  0  0  0
 69 70  1  0  0  0  0
 67 71  1  0  0  0  0
 68 71  1  0  0  0  0
 69 71  1  0  0  0  0
 70 72  1  0  0  0  0
 66 73  1  0  0  0  0
 66 74  1  0  0  0  0
 73 74  1  0  0  0  0
 67 75  1  0  0  0  0
 74 75  1  0  0  0  0
 73 76  1  0  0  0  0
 74 76  1  0  0  0  0
 75 77  1  0  0  0  0
 67 78  1  0  0  0  0
 71 78  1  0  0  0  0
 75 78  1  0  0  0  0
 77 78  1  0  0  0  0
 71 79  1  0  0  0  0
 78 79  1  0  0  0  0
 72 80  1  0  0  0  0
 79 80  1  0  0  0  0
 77 81  1  0  0  0  0
 78 81  1  0  0  0  0
 79 81  1  0  0  0  0
 80 82  1  0  0  0  0
 76 83  1  0  0  0  0
 76 84  1  0  0  0  0
 83 84  1  0  0  0  0
 77 85  1  0  0  0  0
 84 85  1  0  0  0  0
 83 86  1  0  0  0  0
 84 86  1  0  0  0  0
 85 87  1  0  0  0  0
 77 88  1  0  0  0  0
 81 88  1  0  0  0  0
 85 88  1  0  0  0  0
 87 88  1  0  0  0  0
 81 89  1  0  0  0  0
 88 89  1  0  0  0  0
 81 90  1  0  0  0  0
 82 90  1  0  0  0  0
 89 90  1  0  0  0  0
 87 91  1  0  0  0  0
 88 91  1  0  0  0  0
 89 91  1  0  0  0  0
 89 92  1  0  0  0  0
 90 92  1  0  0  0  0
 53 93  1  0  0  0  0
 53 94  1  0  0  0  0
 54 94  1  0  0  0  0
 55 95  1  0  0  0  0
 59 96  1  0  0  0  0
 60 97  1  0  0  0  0
 62 98  1  0  0  0  0
 63 99  1  0  0  0  0
 72100  1  0  0  0  0
 73101  1  0  0  0  0
 82102  1  0  0  0  0
 83103  1  0  0  0  0
 86104  1  0  0  0  0
 87105  1  0  0  0  0
 91106  1  0  0  0  0
 92107  1  0  0  0  0
M  END
