 xtb: 6.7.1pre (5071a88)
          09012620343D

107146  0     0  0            999 V2000
   -0.4238   -1.4126    4.1278 O   0  0  0  0  0  0  0  0  0  0  0  0
   -0.2097   -1.0672    5.2935 C   0  0  0  0  0  0  0  0  0  0  0  0
   -0.9205   -1.4296    6.3769 O   0  0  0  0  0  0  0  0  0  0  0  0
   -1.8734   -2.4225    6.3809 C   0  0  0  0  0  0  0  0  0  0  0  0
   -2.5255   -2.6022    7.5985 C   0  0  0  0  0  0  0  0  0  0  0  0
   -3.4706   -3.6055    7.7314 C   0  0  0  0  0  0  0  0  0  0  0  0
   -4.1089   -3.7924    8.9142 O   0  0  0  0  0  0  0  0  0  0  0  0
   -3.7704   -4.4286    6.6419 C   0  0  0  0  0  0  0  0  0  0  0  0
   -4.7123   -5.4208    6.7983 O   0  0  0  0  0  0  0  0  0  0  0  0
   -3.1226   -4.2307    5.4258 C   0  0  0  0  0  0  0  0  0  0  0  0
   -3.4618   -5.0548    4.3915 O   0  0  0  0  0  0  0  0  0  0  0  0
   -2.1711   -3.2314    5.2912 C   0  0  0  0  0  0  0  0  0  0  0  0
    0.7817    0.0341    5.5325 C   0  0  0  0  0  0  0  0  0  0  0  0
    2.1040   -0.4656    5.3579 O   0  0  0  0  0  0  0  0  0  0  0  0
    3.0448    0.5156    5.3444 C   0  0  0  0  0  0  0  0  0  0  0  0
    4.2873    0.2004    4.8100 C   0  0  0  0  0  0  0  0  0  0  0  0
    5.2554    1.1882    4.7003 C   0  0  0  0  0  0  0  0  0  0  0  0
    6.4629    0.8395    4.1888 O   0  0  0  0  0  0  0  0  0  0  0  0
    4.9617    2.4994    5.0533 C   0  0  0  0  0  0  0  0  0  0  0  0
    3.7214    2.8076    5.5951 C   0  0  0  0  0  0  0  0  0  0  0  0
    3.4479    4.0955    5.8978 O   0  0  0  0  0  0  0  0  0  0  0  0
    2.7732    1.8014    5.8100 C   0  0  0  0  0  0  0  0  0  0  0  0
    1.4993    2.1306    6.5587 C   0  0  0  0  0  0  0  0  0  0  0  0
    0.7900    3.0977    5.8016 O   0  0  0  0  0  0  0  0  0  0  0  0
    0.6910    0.8394    6.8250 C   0  0  0  0  0  0  0  0  0  0  0  0
   -0.7189    1.1309    7.2613 C   0  0  0  0  0  0  0  0  0  0  0  0
   -1.7047    1.4888    6.3425 C   0  0  0  0  0  0  0  0  0  0  0  0
   -3.0023    1.7221    6.7747 C   0  0  0  0  0  0  0  0  0  0  0  0
   -4.0325    2.0581    5.9501 O   0  0  0  0  0  0  0  0  0  0  0  0
   -3.3181    1.6122    8.1288 C   0  0  0  0  0  0  0  0  0  0  0  0
   -4.5968    1.8312    8.5755 O   0  0  0  0  0  0  0  0  0  0  0  0
   -2.3297    1.2720    9.0501 C   0  0  0  0  0  0  0  0  0  0  0  0
   -2.6320    1.1660   10.3670 O   0  0  0  0  0  0  0  0  0  0  0  0
   -1.0352    1.0391    8.6078 C   0  0  0  0  0  0  0  0  0  0  0  0
   -2.2935   -1.9673    8.4364 H   0  0  0  0  0  0  0  0  0  0  0  0
   -4.7177   -4.5356    8.7993 H   0  0  0  0  0  0  0  0  0  0  0  0
   -4.7808   -5.8703    5.9456 H   0  0  0  0  0  0  0  0  0  0  0  0
   -3.0489   -4.7232    3.5758 H   0  0  0  0  0  0  0  0  0  0  0  0
   -1.6792   -3.0975    4.3424 H   0  0  0  0  0  0  0  0  0  0  0  0
    0.6061    0.7311    4.6620 H   0  0  0  0  0  0  0  0  0  0  0  0
    4.4899   -0.8062    4.4854 H   0  0  0  0  0  0  0  0  0  0  0  0
    7.0194    1.6215    4.0945 H   0  0  0  0  0  0  0  0  0  0  0  0
    5.6792    3.2931    4.9159 H   0  0  0  0  0  0  0  0  0  0  0  0
    2.4868    4.1889    5.9868 H   0  0  0  0  0  0  0  0  0  0  0  0
    1.7654    2.5712    7.5369 H   0  0  0  0  0  0  0  0  0  0  0  0
   -0.1161    3.1602    6.1281 H   0  0  0  0  0  0  0  0  0  0  0  0
    1.2004    0.2839    7.6175 H   0  0  0  0  0  0  0  0  0  0  0  0
   -1.4936    1.5584    5.2859 H   0  0  0  0  0  0  0  0  0  0  0  0
   -3.7452    2.1873    5.0300 H   0  0  0  0  0  0  0  0  0  0  0  0
   -5.1320    2.0263    7.7948 H   0  0  0  0  0  0  0  0  0  0  0  0
   -3.5812    1.3259   10.4628 H   0  0  0  0  0  0  0  0  0  0  0  0
   -0.2906    0.7634    9.3360 H   0  0  0  0  0  0  0  0  0  0  0  0
   -4.5096   -2.1747    2.6457 B   0  0  0  0  0  0  0  0  0  0  0  0
   -4.2877   -1.0288    1.5637 B   0  0  0  0  0  0  0  0  0  0  0  0
   -4.2039   -0.0090    0.2539 B   0  0  0  0  0  0  0  0  0  0  0  0
   -3.2069   -2.4164    1.7369 B   0  0  0  0  0  0  0  0  0  0  0  0
   -2.7140    0.3202    0.5819 B   0  0  0  0  0  0  0  0  0  0  0  0
   -3.9212    0.6757    1.8980 B   0  0  0  0  0  0  0  0  0  0  0  0
   -4.5099    1.8808    2.7791 B   0  0  0  0  0  0  0  0  0  0  0  0
   -3.9138    3.4083    2.7311 B   0  0  0  0  0  0  0  0  0  0  0  0
   -2.3077    0.7099    2.1433 B   0  0  0  0  0  0  0  0  0  0  0  0
   -2.4919    3.7290    3.4637 B   0  0  0  0  0  0  0  0  0  0  0  0
   -2.0679   -3.6147    1.6482 B   0  0  0  0  0  0  0  0  0  0  0  0
   -1.7100   -2.1517    1.1232 B   0  0  0  0  0  0  0  0  0  0  0  0
   -1.3835   -0.5409    1.0685 B   0  0  0  0  0  0  0  0  0  0  0  0
   -0.4621   -3.1704    1.3528 B   0  0  0  0  0  0  0  0  0  0  0  0
    0.1685   -0.1390    1.3790 B   0  0  0  0  0  0  0  0  0  0  0  0
   -0.8734    0.1290    2.6679 B   0  0  0  0  0  0  0  0  0  0  0  0
   -1.1604    1.7984    2.5690 B   0  0  0  0  0  0  0  0  0  0  0  0
   -1.2362    3.3842    2.5315 B   0  0  0  0  0  0  0  0  0  0  0  0
    0.3686    1.1343    2.6594 B   0  0  0  0  0  0  0  0  0  0  0  0
   -0.0717    4.3823    1.9396 B   0  0  0  0  0  0  0  0  0  0  0  0
    0.8729   -4.1199    1.6554 B   0  0  0  0  0  0  0  0  0  0  0  0
    1.1019   -2.5808    1.2460 B   0  0  0  0  0  0  0  0  0  0  0  0
    1.5304   -1.0534    1.0939 B   0  0  0  0  0  0  0  0  0  0  0  0
    2.3151   -3.4040    2.0229 B   0  0  0  0  0  0  0  0  0  0  0  0
    2.9910   -0.3687    1.2435 B   0  0  0  0  0  0  0  0  0  0  0  0
    1.6753    0.5077    1.6945 B   0  0  0  0  0  0  0  0  0  0  0  0
    1.7509    2.0278    2.4512 B   0  0  0  0  0  0  0  0  0  0  0  0
    1.2043    3.4535    1.9658 B   0  0  0  0  0  0  0  0  0  0  0  0
    2.9845    1.5148    1.4456 B   0  0  0  0  0  0  0  0  0  0  0  0
    1.7507    2.8617    0.4949 B   0  0  0  0  0  0  0  0  0  0  0  0
    3.3903   -3.7942    3.2545 B   0  0  0  0  0  0  0  0  0  0  0  0
    3.8188   -2.7629    2.0651 B   0  0  0  0  0  0  0  0  0  0  0  0
    4.3289   -1.3642    1.4417 B   0  0  0  0  0  0  0  0  0  0  0  0
    4.7733   -2.9783    3.3034 B   0  0  0  0  0  0  0  0  0  0  0  0
    5.6862   -0.6650    0.7990 B   0  0  0  0  0  0  0  0  0  0  0  0
    4.5107    0.3014    1.3749 B   0  0  0  0  0  0  0  0  0  0  0  0
    4.5670    2.0811    1.2111 B   0  0  0  0  0  0  0  0  0  0  0  0
    3.3551    2.8588    0.3392 B   0  0  0  0  0  0  0  0  0  0  0  0
    5.8825    1.0958    1.0320 B   0  0  0  0  0  0  0  0  0  0  0  0
    4.8411    3.2445    0.1548 B   0  0  0  0  0  0  0  0  0  0  0  0
   -4.8731   -2.5234    3.7041 H   0  0  0  0  0  0  0  0  0  0  0  0
   -5.4483   -1.6096    1.9500 H   0  0  0  0  0  0  0  0  0  0  0  0
   -5.0690    0.1494   -0.5306 H   0  0  0  0  0  0  0  0  0  0  0  0
   -5.3461    1.6490    3.5902 H   0  0  0  0  0  0  0  0  0  0  0  0
   -4.5462    4.2563    2.2076 H   0  0  0  0  0  0  0  0  0  0  0  0
   -2.4450    4.0784    4.5919 H   0  0  0  0  0  0  0  0  0  0  0  0
   -2.3291   -4.7594    1.7393 H   0  0  0  0  0  0  0  0  0  0  0  0
   -0.2248    5.4784    1.5360 H   0  0  0  0  0  0  0  0  0  0  0  0
    0.7777   -5.2870    1.6712 H   0  0  0  0  0  0  0  0  0  0  0  0
    1.0127    2.5159   -0.3644 H   0  0  0  0  0  0  0  0  0  0  0  0
    3.1068   -4.6206    4.0314 H   0  0  0  0  0  0  0  0  0  0  0  0
    5.7777   -2.7748    3.8561 H   0  0  0  0  0  0  0  0  0  0  0  0
    6.6559   -1.1742    0.3892 H   0  0  0  0  0  0  0  0  0  0  0  0
    7.0074    1.4146    1.1004 H   0  0  0  0  0  0  0  0  0  0  0  0
    5.6964    3.8822   -0.3185 H   0  0  0  0  0  0  0  0  0  0  0  0
  1  2  2  0  0  0  0
  2  3  1  0  0  0  0
  3  4  1  0  0  0  0
  4  5  4  0  0  0  0
  5  6  4  0  0  0  0
  6  7  1  0  0  0  0
  6  8  4  0  0  0  0
  8  9  1  0  0  0  0
  8 10  4  0  0  0  0
 10 11  1  0  0  0  0
  4 12  4  0  0  0  0
 10 12  4  0  0  0  0
  2 13  1  0  0  0  0
 13 14  1  0  0  0  0
 14 15  1  0  0  0  0
 15 16  4  0  0  0  0
 16 17  4  0  0  0  0
 17 18  1  0  0  0  0
 17 19  4  0  0  0  0
 19 20  4  0  0  0  0
 20 21  1  0  0  0  0
 15 22  4  0  0  0  0
 20 22  4  0  0  0  0
 22 23  1  0  0  0  0
 23 24  1  0  0  0  0
 13 25  1  0  0  0  0
 23 25  1  0  0  0  0
 25 26  1  0  0  0  0
 26 27  4  0  0  0  0
 27 28  4  0  0  0  0
 28 29  1  0  0  0  0
 28 30  4  0  0  0  0
 30 31  1  0  0  0  0
 30 32  4  0  0  0  0
 32 33  1  0  0  0  0
 26 34  4  0  0  0  0
 32 34  4  0  0  0  0
  5 35  1  0  0  0  0
  7 36  1  0  0  0  0
  9 37  1  0  0  0  0
 11 38  1  0  0  0  0
 12 39  1  0  0  0  0
 13 40  1  0  0  0  0
 16 41  1  0  0  0  0
 18 42  1  0  0  0  0
 19 43  1  0  0  0  0
 21 44  1  0  0  0  0
 23 45  1  0  0  0  0
 24 46  1  0  0  0  0
 25 47  1  0  0  0  0
 27 48  1  0  0  0  0
 29 49  1  0  0  0  0
 31 50  1  0  0  0  0
 33 51  1  0  0  0  0
 34 52  1  0  0  0  0
 53 54  1  0  0  0  0
 54 55  1  0  0  0  0
 53 56  1  0  0  0  0
 54 56  1  0  0  0  0
 55 57  1  0  0  0  0
 54 58  1  0  0  0  0
 55 58  1  0  0  0  0
 57 58  1  0  0  0  0
 58 59  1  0  0  0  0
 59 60  1  0  0  0  0
 57 61  1  0  0  0  0
 58 61  1  0  0  0  0
 60 62  1  0  0  0  0
 56 63  1  0  0  0  0
 56 64  1  0  0  0  0
 63 64  1  0  0  0  0
 57 65  1  0  0  0  0
 61 65  1  0  0  0  0
 64 65  1  0  0  0  0
 63 66  1  0  0  0  0
 64 66  1  0  0  0  0
 65 67  1  0  0  0  0
 61 68  1  0  0  0  0
 65 68  1  0  0  0  0
 67 68  1  0  0  0  0
 61 69  1  0  0  0  0
 68 69  1  0  0  0  0
 62 70  1  0  0  0  0
 69 70  1  0  0  0  0
 67 71  1  0  0  0  0
 68 71  1  0  0  0  0
 69 71  1  0  0  0  0
 70 72  1  0  0  0  0
 66 73  1  0  0  0  0
 66 74  1  0  0  0  0
 73 74  1  0  0  0  0
 67 75  1  0  0  0  0
 74 75  1  0  0  0  0
 73 76  1  0  0  0  0
 74 76  1  0  0  0  0
 75 77  1  0  0  0  0
 67 78  1  0  0  0  0
 71 78  1  0  0  0  0
 75 78  1  0  0  0  0
 77 78  1  0  0  0  0
 71 79  1  0  0  0  0
 78 79  1  0  0  0  0
 72 80  1  0  0  0  0
 79 80  1  0  0  0  0
 77 81  1  0  0  0  0
 78 81  1  0  0  0  0
 79 81  1  0  0  0  0
 80 82  1  0  0  0  0
 76 83  1  0  0  0  0
 76 84  1  0  0  0  0
 83 84  1  0  0  0  0
 77 85  1  0  0  0  0
 84 85  1  0  0  0  0
 83 86  1  0  0  0  0
 84 86  1  0  0  0  0
 85 87  1  0  0  0  0
 77 88  1  0  0  0  0
 81 88  1  0  0  0  0
 85 88  1  0  0  0  0
 87 88  1  0  0  0  0
 81 89  1  0  0  0  0
 88 89  1  0  0  0  0
 81 90  1  0  0  0  0
 82 90  1  0  0  0  0
 89 90  1  0  0  0  0
 87 91  1  0  0  0  0
 88 91  1  0  0  0  0
 89 91  1  0  0  0  0
 89 92  1  0  0  0  0
 90 92  1  0  0  0  0
 53 93  1  0  0  0  0
 53 94  1  0  0  0  0
 54 94  1  0  0  0  0
 55 95  1  0  0  0  0
 59 96  1  0  0  0  0
 60 97  1  0  0  0  0
 62 98  1  0  0  0  0
 63 99  1  0  0  0  0
 72100  1  0  0  0  0
 73101  1  0  0  0  0
 82102  1  0  0  0  0
 83103  1  0  0  0  0
 86104  1  0  0  0  0
 87105  1  0  0  0  0
 91106  1  0  0  0  0
 92107  1  0  0  0  0
M  END
