 xtb: 6.7.1pre (5071a88)
          08312621153D

112168  0     0  0            999 V2000
    0.9509   -0.9381    3.3194 O   0  0  0  0  0  0  0  0  0  0  0  0
    0.9231   -0.1365    4.2488 C   0  0  0  0  0  0  0  0  0  0  0  0
    1.7975   -0.0944    5.3292 O   0  0  0  0  0  0  0  0  0  0  0  0
    2.7266   -1.1361    5.3144 C   0  0  0  0  0  0  0  0  0  0  0  0
    2.4472   -2.2931    6.0458 C   0  0  0  0  0  0  0  0  0  0  0  0
    3.3924   -3.3074    6.0596 C   0  0  0  0  0  0  0  0  0  0  0  0
    3.1414   -4.4511    6.7607 O   0  0  0  0  0  0  0  0  0  0  0  0
    4.5912   -3.1637    5.3689 C   0  0  0  0  0  0  0  0  0  0  0  0
    5.5039   -4.1839    5.4034 O   0  0  0  0  0  0  0  0  0  0  0  0
    4.8621   -1.9981    4.6566 C   0  0  0  0  0  0  0  0  0  0  0  0
    6.0604   -1.9168    4.0029 O   0  0  0  0  0  0  0  0  0  0  0  0
    3.9336   -0.9645    4.6278 C   0  0  0  0  0  0  0  0  0  0  0  0
   -0.1264    0.9590    4.3765 C   0  0  0  0  0  0  0  0  0  0  0  0
    0.5850    2.2052    4.4534 O   0  0  0  0  0  0  0  0  0  0  0  0
   -0.2298    3.2895    4.6431 C   0  0  0  0  0  0  0  0  0  0  0  0
    0.3174    4.5309    4.3161 C   0  0  0  0  0  0  0  0  0  0  0  0
   -0.4527    5.6803    4.4506 C   0  0  0  0  0  0  0  0  0  0  0  0
    0.1196    6.8728    4.1184 O   0  0  0  0  0  0  0  0  0  0  0  0
   -1.7680    5.6066    4.8905 C   0  0  0  0  0  0  0  0  0  0  0  0
   -2.2993    4.3615    5.2144 C   0  0  0  0  0  0  0  0  0  0  0  0
   -3.6187    4.3188    5.5721 O   0  0  0  0  0  0  0  0  0  0  0  0
   -1.5317    3.1907    5.1464 C   0  0  0  0  0  0  0  0  0  0  0  0
   -2.0780    1.8704    5.6212 C   0  0  0  0  0  0  0  0  0  0  0  0
   -3.1923    1.5645    4.7756 O   0  0  0  0  0  0  0  0  0  0  0  0
   -1.0029    0.7625    5.6209 C   0  0  0  0  0  0  0  0  0  0  0  0
   -1.6104   -0.6171    5.8385 C   0  0  0  0  0  0  0  0  0  0  0  0
   -1.9674   -1.4686    4.7739 C   0  0  0  0  0  0  0  0  0  0  0  0
   -2.5213   -2.7203    5.0373 C   0  0  0  0  0  0  0  0  0  0  0  0
   -2.8575   -3.5863    4.0348 O   0  0  0  0  0  0  0  0  0  0  0  0
   -2.7514   -3.1250    6.3448 C   0  0  0  0  0  0  0  0  0  0  0  0
   -3.3047   -4.3472    6.6111 O   0  0  0  0  0  0  0  0  0  0  0  0
   -2.4189   -2.2894    7.3989 C   0  0  0  0  0  0  0  0  0  0  0  0
   -2.6461   -2.6824    8.6849 O   0  0  0  0  0  0  0  0  0  0  0  0
   -1.8505   -1.0447    7.1591 C   0  0  0  0  0  0  0  0  0  0  0  0
    1.5156   -2.4056    6.5904 H   0  0  0  0  0  0  0  0  0  0  0  0
    3.9358   -5.0052    6.6208 H   0  0  0  0  0  0  0  0  0  0  0  0
    6.2478   -3.8572    4.8565 H   0  0  0  0  0  0  0  0  0  0  0  0
    6.0917   -1.0664    3.5302 H   0  0  0  0  0  0  0  0  0  0  0  0
    4.1219   -0.0436    4.0877 H   0  0  0  0  0  0  0  0  0  0  0  0
   -0.7151    0.9489    3.4485 H   0  0  0  0  0  0  0  0  0  0  0  0
    1.3370    4.6025    3.9487 H   0  0  0  0  0  0  0  0  0  0  0  0
   -0.5305    7.5799    4.2665 H   0  0  0  0  0  0  0  0  0  0  0  0
   -2.3923    6.4899    4.9715 H   0  0  0  0  0  0  0  0  0  0  0  0
   -3.9528    3.4459    5.2815 H   0  0  0  0  0  0  0  0  0  0  0  0
   -2.4664    1.9912    6.6409 H   0  0  0  0  0  0  0  0  0  0  0  0
   -3.6275    0.7761    5.1522 H   0  0  0  0  0  0  0  0  0  0  0  0
   -0.3481    0.9622    6.4845 H   0  0  0  0  0  0  0  0  0  0  0  0
   -1.8190   -1.1612    3.7418 H   0  0  0  0  0  0  0  0  0  0  0  0
   -2.4853   -3.2492    3.2000 H   0  0  0  0  0  0  0  0  0  0  0  0
   -3.4284   -4.7531    5.7282 H   0  0  0  0  0  0  0  0  0  0  0  0
   -3.0141   -3.5864    8.6058 H   0  0  0  0  0  0  0  0  0  0  0  0
   -1.5944   -0.4169    8.0102 H   0  0  0  0  0  0  0  0  0  0  0  0
   -6.3511   -2.8545   -0.3396 B   0  0  0  0  0  0  0  0  0  0  0  0
   -3.8632   -3.4276    0.8712 B   0  0  0  0  0  0  0  0  0  0  0  0
   -1.0552   -4.1651    1.9793 B   0  0  0  0  0  0  0  0  0  0  0  0
    1.6853   -4.2318    1.3549 B   0  0  0  0  0  0  0  0  0  0  0  0
    2.9703   -3.6923    0.6219 B   0  0  0  0  0  0  0  0  0  0  0  0
    5.9076   -3.8486   -0.3800 B   0  0  0  0  0  0  0  0  0  0  0  0
   -4.7612   -2.3307   -0.4078 B   0  0  0  0  0  0  0  0  0  0  0  0
   -2.6199   -2.2111    0.8442 B   0  0  0  0  0  0  0  0  0  0  0  0
   -1.2327   -2.3911    1.7792 B   0  0  0  0  0  0  0  0  0  0  0  0
    0.2814   -3.1446    1.2586 B   0  0  0  0  0  0  0  0  0  0  0  0
    3.1280   -2.1353    0.0337 B   0  0  0  0  0  0  0  0  0  0  0  0
    5.2824   -2.5807   -1.1427 B   0  0  0  0  0  0  0  0  0  0  0  0
   -4.3827   -1.0545   -1.3461 B   0  0  0  0  0  0  0  0  0  0  0  0
   -3.1924   -1.2685   -0.2398 B   0  0  0  0  0  0  0  0  0  0  0  0
   -0.7667   -0.9151    2.1471 B   0  0  0  0  0  0  0  0  0  0  0  0
    0.4341   -1.5098    0.8825 B   0  0  0  0  0  0  0  0  0  0  0  0
    4.2603   -1.2719   -0.6057 B   0  0  0  0  0  0  0  0  0  0  0  0
    6.8452   -2.4756   -0.8065 B   0  0  0  0  0  0  0  0  0  0  0  0
   -5.0072   -0.6437   -2.8496 B   0  0  0  0  0  0  0  0  0  0  0  0
   -3.1952    0.1543   -0.9257 B   0  0  0  0  0  0  0  0  0  0  0  0
   -0.9469    0.6233    2.2104 B   0  0  0  0  0  0  0  0  0  0  0  0
    0.0016   -0.0204    0.9084 B   0  0  0  0  0  0  0  0  0  0  0  0
    4.8754    0.2242   -0.5476 B   0  0  0  0  0  0  0  0  0  0  0  0
    5.8786   -1.0664   -1.1306 B   0  0  0  0  0  0  0  0  0  0  0  0
   -5.7672    0.8535   -2.9176 B   0  0  0  0  0  0  0  0  0  0  0  0
   -2.8971    1.6282   -0.7083 B   0  0  0  0  0  0  0  0  0  0  0  0
   -1.2399    2.1332    2.0889 B   0  0  0  0  0  0  0  0  0  0  0  0
    0.1883    1.5499    1.0540 B   0  0  0  0  0  0  0  0  0  0  0  0
    4.2581    1.5841    0.0647 B   0  0  0  0  0  0  0  0  0  0  0  0
    6.3075    0.4397   -1.6258 B   0  0  0  0  0  0  0  0  0  0  0  0
   -5.7341    1.7554   -1.4938 B   0  0  0  0  0  0  0  0  0  0  0  0
   -3.3469    2.9740   -0.1746 B   0  0  0  0  0  0  0  0  0  0  0  0
   -1.6646    3.6160    1.7973 B   0  0  0  0  0  0  0  0  0  0  0  0
   -0.0590    3.1640    1.3235 B   0  0  0  0  0  0  0  0  0  0  0  0
    2.9656    2.2589    0.6844 B   0  0  0  0  0  0  0  0  0  0  0  0
    5.7919    1.6725   -0.6985 B   0  0  0  0  0  0  0  0  0  0  0  0
   -6.6389    2.8000   -0.8422 B   0  0  0  0  0  0  0  0  0  0  0  0
   -4.4746    3.8873    0.5879 B   0  0  0  0  0  0  0  0  0  0  0  0
   -1.7771    5.1752    1.2154 B   0  0  0  0  0  0  0  0  0  0  0  0
    1.1754    4.4066    1.3290 B   0  0  0  0  0  0  0  0  0  0  0  0
    2.5938    3.9229    0.8796 B   0  0  0  0  0  0  0  0  0  0  0  0
    5.3509    2.9860   -0.0541 B   0  0  0  0  0  0  0  0  0  0  0  0
   -5.3190   -3.6348    0.4165 B   0  0  0  0  0  0  0  0  0  0  0  0
   -2.4877   -3.6329    1.6055 B   0  0  0  0  0  0  0  0  0  0  0  0
    0.3596   -4.7213    1.9063 B   0  0  0  0  0  0  0  0  0  0  0  0
    1.7215   -2.4162    0.7345 B   0  0  0  0  0  0  0  0  0  0  0  0
    4.3387   -3.4800   -0.0729 B   0  0  0  0  0  0  0  0  0  0  0  0
   -5.0953    2.8472   -0.3735 B   0  0  0  0  0  0  0  0  0  0  0  0
   -3.0345    4.3187    0.9326 B   0  0  0  0  0  0  0  0  0  0  0  0
   -0.2869    4.8951    1.4426 B   0  0  0  0  0  0  0  0  0  0  0  0
    1.4616    2.5482    0.9924 B   0  0  0  0  0  0  0  0  0  0  0  0
    4.0784    3.6198    0.5106 B   0  0  0  0  0  0  0  0  0  0  0  0
   -4.5957    0.5913   -1.8415 B   0  0  0  0  0  0  0  0  0  0  0  0
   -7.3684   -2.5027   -0.8103 H   0  0  0  0  0  0  0  0  0  0  0  0
   -4.9591   -1.3760   -3.7739 H   0  0  0  0  0  0  0  0  0  0  0  0
   -6.3246    1.2608   -3.8715 H   0  0  0  0  0  0  0  0  0  0  0  0
   -7.6134    3.4017   -0.5976 H   0  0  0  0  0  0  0  0  0  0  0  0
    6.3612   -4.9354   -0.3602 H   0  0  0  0  0  0  0  0  0  0  0  0
    8.0163   -2.4682   -0.9061 H   0  0  0  0  0  0  0  0  0  0  0  0
    6.9392    0.6146   -2.6128 H   0  0  0  0  0  0  0  0  0  0  0  0
  1  2  2  0  0  0  0
  2  3  1  0  0  0  0
  3  4  1  0  0  0  0
  4  5  4  0  0  0  0
  5  6  4  0  0  0  0
  6  7  1  0  0  0  0
  6  8  4  0  0  0  0
  8  9  1  0  0  0  0
  8 10  4  0  0  0  0
 10 11  1  0  0  0  0
  4 12  4  0  0  0  0
 10 12  4  0  0  0  0
  2 13  1  0  0  0  0
 13 14  1  0  0  0  0
 14 15  1  0  0  0  0
 15 16  4  0  0  0  0
 16 17  4  0  0  0  0
 17 18  1  0  0  0  0
 17 19  4  0  0  0  0
 19 20  4  0  0  0  0
 20 21  1  0  0  0  0
 15 22  4  0  0  0  0
 20 22  4  0  0  0  0
 22 23  1  0  0  0  0
 23 24  1  0  0  0  0
 13 25  1  0  0  0  0
 23 25  1  0  0  0  0
 25 26  1  0  0  0  0
 26 27  4  0  0  0  0
 27 28  4  0  0  0  0
 28 29  1  0  0  0  0
 28 30  4  0  0  0  0
 30 31  1  0  0  0  0
 30 32  4  0  0  0  0
 32 33  1  0  0  0  0
 26 34  4  0  0  0  0
 32 34  4  0  0  0  0
  5 35  1  0  0  0  0
  7 36  1  0  0  0  0
  9 37  1  0  0  0  0
 11 38  1  0  0  0  0
 12 39  1  0  0  0  0
 13 40  1  0  0  0  0
 16 41  1  0  0  0  0
 18 42  1  0  0  0  0
 19 43  1  0  0  0  0
 21 44  1  0  0  0  0
 23 45  1  0  0  0  0
 24 46  1  0  0  0  0
 25 47  1  0  0  0  0
 27 48  1  0  0  0  0
 29 49  1  0  0  0  0
 31 50  1  0  0  0  0
 33 51  1  0  0  0  0
 34 52  1  0  0  0  0
 56 57  1  0  0  0  0
 53 59  1  0  0  0  0
 54 59  1  0  0  0  0
 54 60  1  0  0  0  0
 55 61  1  0  0  0  0
 60 61  1  0  0  0  0
 55 62  1  0  0  0  0
 56 62  1  0  0  0  0
 61 62  1  0  0  0  0
 57 63  1  0  0  0  0
 58 64  1  0  0  0  0
 59 65  1  0  0  0  0
 59 66  1  0  0  0  0
 60 66  1  0  0  0  0
 65 66  1  0  0  0  0
 61 67  1  0  0  0  0
 62 68  1  0  0  0  0
 67 68  1  0  0  0  0
 63 69  1  0  0  0  0
 64 69  1  0  0  0  0
 58 70  1  0  0  0  0
 64 70  1  0  0  0  0
 65 71  1  0  0  0  0
 65 72  1  0  0  0  0
 66 72  1  0  0  0  0
 67 73  1  0  0  0  0
 67 74  1  0  0  0  0
 68 74  1  0  0  0  0
 73 74  1  0  0  0  0
 69 75  1  0  0  0  0
 64 76  1  0  0  0  0
 69 76  1  0  0  0  0
 70 76  1  0  0  0  0
 75 76  1  0  0  0  0
 71 77  1  0  0  0  0
 72 78  1  0  0  0  0
 73 79  1  0  0  0  0
 73 80  1  0  0  0  0
 74 80  1  0  0  0  0
 79 80  1  0  0  0  0
 75 81  1  0  0  0  0
 75 82  1  0  0  0  0
 76 82  1  0  0  0  0
 77 83  1  0  0  0  0
 78 84  2  0  0  0  0
 79 85  1  0  0  0  0
 79 86  1  0  0  0  0
 80 86  1  0  0  0  0
 85 86  1  0  0  0  0
 81 87  1  0  0  0  0
 75 88  1  0  0  0  0
 81 88  1  0  0  0  0
 82 88  1  0  0  0  0
 83 89  1  0  0  0  0
 84 90  1  0  0  0  0
 85 91  1  0  0  0  0
 86 92  1  0  0  0  0
 87 93  1  0  0  0  0
 92 93  1  0  0  0  0
 81 94  1  0  0  0  0
 88 94  1  0  0  0  0
 53 95  2  0  0  0  0
 54 95  1  0  0  0  0
 59 95  1  0  0  0  0
 54 96  1  0  0  0  0
 55 96  1  0  0  0  0
 60 96  1  0  0  0  0
 61 96  1  0  0  0  0
 55 97  1  0  0  0  0
 56 97  1  0  0  0  0
 62 97  1  0  0  0  0
 56 98  1  0  0  0  0
 57 98  1  0  0  0  0
 62 98  1  0  0  0  0
 63 98  1  0  0  0  0
 68 98  1  0  0  0  0
 57 99  1  0  0  0  0
 58 99  1  0  0  0  0
 63 99  1  0  0  0  0
 64 99  1  0  0  0  0
 83100  1  0  0  0  0
 84100  1  0  0  0  0
 89100  1  0  0  0  0
 90100  1  0  0  0  0
 84101  1  0  0  0  0
 85101  1  0  0  0  0
 90101  1  0  0  0  0
 91101  1  0  0  0  0
 85102  1  0  0  0  0
 86102  1  0  0  0  0
 91102  1  0  0  0  0
 92102  1  0  0  0  0
 80103  1  0  0  0  0
 86103  1  0  0  0  0
 87103  1  0  0  0  0
 92103  1  0  0  0  0
 93103  1  0  0  0  0
 81104  1  0  0  0  0
 87104  1  0  0  0  0
 93104  1  0  0  0  0
 94104  1  0  0  0  0
 65105  1  0  0  0  0
 71105  1  0  0  0  0
 72105  1  0  0  0  0
 77105  1  0  0  0  0
 83105  1  0  0  0  0
 53106  1  0  0  0  0
 71107  1  0  0  0  0
 77108  1  0  0  0  0
 89109  1  0  0  0  0
 58110  1  0  0  0  0
 70111  1  0  0  0  0
 82112  1  0  0  0  0
M  END
