 xtb: 6.7.1 (edcfbbe)
          09242615183D

 51 54  0     0  0            999 V2000
    2.0973   -2.2575    0.7215 O   0  0  0  0  0  0  0  0  0  0  0  0
    2.1181   -1.1230    0.3034 C   0  0  0  0  0  0  0  0  0  0  0  0
    1.1723   -0.6138   -0.4982 O   0  0  0  0  0  0  0  0  0  0  0  0
    0.0349   -1.4228   -0.7642 C   0  0  0  0  0  0  0  0  0  0  0  0
   -0.6980   -0.8251   -1.9552 C   0  0  0  0  0  0  0  0  0  0  0  0
   -2.0347   -1.4903   -2.1036 C   0  0  0  0  0  0  0  0  0  0  0  0
   -2.7016   -1.4869   -3.3306 C   0  0  0  0  0  0  0  0  0  0  0  0
   -2.1044   -0.8437   -4.3708 O   0  0  0  0  0  0  0  0  0  0  0  0
   -3.9258   -2.1178   -3.4793 C   0  0  0  0  0  0  0  0  0  0  0  0
   -4.5009   -2.7718   -2.3950 C   0  0  0  0  0  0  0  0  0  0  0  0
   -5.6989   -3.3858   -2.5828 O   0  0  0  0  0  0  0  0  0  0  0  0
   -3.8582   -2.7769   -1.1693 C   0  0  0  0  0  0  0  0  0  0  0  0
   -2.6295   -2.1346   -1.0232 C   0  0  0  0  0  0  0  0  0  0  0  0
   -2.0689   -2.2012    0.2121 O   0  0  0  0  0  0  0  0  0  0  0  0
   -0.8981   -1.4534    0.4726 C   0  0  0  0  0  0  0  0  0  0  0  0
   -1.1730   -0.0448    0.9494 C   0  0  0  0  0  0  0  0  0  0  0  0
   -0.2716    0.5493    1.8209 C   0  0  0  0  0  0  0  0  0  0  0  0
   -0.4360    1.8683    2.2157 C   0  0  0  0  0  0  0  0  0  0  0  0
    0.4590    2.4476    3.0517 O   0  0  0  0  0  0  0  0  0  0  0  0
   -1.5342    2.5955    1.7522 C   0  0  0  0  0  0  0  0  0  0  0  0
   -1.6819    3.8978    2.1619 O   0  0  0  0  0  0  0  0  0  0  0  0
   -2.4520    1.9881    0.9009 C   0  0  0  0  0  0  0  0  0  0  0  0
   -3.5186    2.7522    0.4916 O   0  0  0  0  0  0  0  0  0  0  0  0
   -2.2678    0.6762    0.4939 C   0  0  0  0  0  0  0  0  0  0  0  0
    3.1703   -0.1374    0.6267 C   0  0  0  0  0  0  0  0  0  0  0  0
    3.0831    1.1869    0.2127 C   0  0  0  0  0  0  0  0  0  0  0  0
    4.0713    2.0884    0.5746 C   0  0  0  0  0  0  0  0  0  0  0  0
    3.9993    3.3807    0.1782 O   0  0  0  0  0  0  0  0  0  0  0  0
    5.1504    1.6591    1.3554 C   0  0  0  0  0  0  0  0  0  0  0  0
    6.1104    2.5702    1.7001 O   0  0  0  0  0  0  0  0  0  0  0  0
    5.2300    0.3285    1.7691 C   0  0  0  0  0  0  0  0  0  0  0  0
    6.3158   -0.0140    2.5347 O   0  0  0  0  0  0  0  0  0  0  0  0
    4.2425   -0.5662    1.4061 C   0  0  0  0  0  0  0  0  0  0  0  0
    0.3568   -2.4520   -0.9733 H   0  0  0  0  0  0  0  0  0  0  0  0
   -0.1167   -0.9545   -2.8687 H   0  0  0  0  0  0  0  0  0  0  0  0
   -0.8142    0.2499   -1.7888 H   0  0  0  0  0  0  0  0  0  0  0  0
   -2.6499   -0.9405   -5.1605 H   0  0  0  0  0  0  0  0  0  0  0  0
   -4.4420   -2.1202   -4.4271 H   0  0  0  0  0  0  0  0  0  0  0  0
   -5.9717   -3.8173   -1.7643 H   0  0  0  0  0  0  0  0  0  0  0  0
   -4.2851   -3.2758   -0.3126 H   0  0  0  0  0  0  0  0  0  0  0  0
   -0.3899   -2.0034    1.2737 H   0  0  0  0  0  0  0  0  0  0  0  0
    0.5756    0.0054    2.2052 H   0  0  0  0  0  0  0  0  0  0  0  0
    0.1785    3.3630    3.1930 H   0  0  0  0  0  0  0  0  0  0  0  0
   -2.4868    4.2368    1.7505 H   0  0  0  0  0  0  0  0  0  0  0  0
   -4.0794    2.2260   -0.0881 H   0  0  0  0  0  0  0  0  0  0  0  0
   -2.9909    0.2218   -0.1681 H   0  0  0  0  0  0  0  0  0  0  0  0
    2.2509    1.5260   -0.3791 H   0  0  0  0  0  0  0  0  0  0  0  0
    4.7662    3.8470    0.5402 H   0  0  0  0  0  0  0  0  0  0  0  0
    6.7634    2.1107    2.2442 H   0  0  0  0  0  0  0  0  0  0  0  0
    6.2536   -0.9459    2.7706 H   0  0  0  0  0  0  0  0  0  0  0  0
    4.2812   -1.5988    1.7202 H   0  0  0  0  0  0  0  0  0  0  0  0
  1  2  2  0  0  0  0
  2  3  1  0  0  0  0
  3  4  1  0  0  0  0
  4  5  1  0  0  0  0
  5  6  1  0  0  0  0
  6  7  4  0  0  0  0
  7  8  1  0  0  0  0
  7  9  4  0  0  0  0
  9 10  4  0  0  0  0
 10 11  1  0  0  0  0
 10 12  4  0  0  0  0
  6 13  4  0  0  0  0
 12 13  4  0  0  0  0
 13 14  1  0  0  0  0
  4 15  1  0  0  0  0
 14 15  1  0  0  0  0
 15 16  1  0  0  0  0
 16 17  4  0  0  0  0
 17 18  4  0  0  0  0
 18 19  1  0  0  0  0
 18 20  4  0  0  0  0
 20 21  1  0  0  0  0
 20 22  4  0  0  0  0
 22 23  1  0  0  0  0
 16 24  4  0  0  0  0
 22 24  4  0  0  0  0
  2 25  1  0  0  0  0
 25 26  4  0  0  0  0
 26 27  4  0  0  0  0
 27 28  1  0  0  0  0
 27 29  4  0  0  0  0
 29 30  1  0  0  0  0
 29 31  4  0  0  0  0
 31 32  1  0  0  0  0
 25 33  4  0  0  0  0
 31 33  4  0  0  0  0
  4 34  1  0  0  0  0
  5 35  1  0  0  0  0
  5 36  1  0  0  0  0
  8 37  1  0  0  0  0
  9 38  1  0  0  0  0
 11 39  1  0  0  0  0
 12 40  1  0  0  0  0
 15 41  1  0  0  0  0
 17 42  1  0  0  0  0
 19 43  1  0  0  0  0
 21 44  1  0  0  0  0
 23 45  1  0  0  0  0
 24 46  1  0  0  0  0
 26 47  1  0  0  0  0
 28 48  1  0  0  0  0
 30 49  1  0  0  0  0
 32 50  1  0  0  0  0
 33 51  1  0  0  0  0
M  END
