 xtb: 6.7.1 (edcfbbe)
          09242615313D

 42 43  0     0  0            999 V2000
   -0.9346    1.9858   -0.4809 O   0  0  0  0  0  0  0  0  0  0  0  0
   -0.3164    1.0370   -0.9008 C   0  0  0  0  0  0  0  0  0  0  0  0
    1.0078    0.6036   -0.4542 C   0  0  0  0  0  0  0  0  0  0  0  0
    1.6998    1.3319    0.4329 C   0  0  0  0  0  0  0  0  0  0  0  0
    3.0210    1.0522    0.9524 C   0  0  0  0  0  0  0  0  0  0  0  0
    3.6638   -0.1720    0.7628 C   0  0  0  0  0  0  0  0  0  0  0  0
    4.9290   -0.3880    1.2735 C   0  0  0  0  0  0  0  0  0  0  0  0
    5.5832    0.6107    1.9754 C   0  0  0  0  0  0  0  0  0  0  0  0
    6.8398    0.4610    2.5023 O   0  0  0  0  0  0  0  0  0  0  0  0
    4.9529    1.8484    2.1787 C   0  0  0  0  0  0  0  0  0  0  0  0
    5.5814    2.8343    2.8649 O   0  0  0  0  0  0  0  0  0  0  0  0
    3.6824    2.0508    1.6742 C   0  0  0  0  0  0  0  0  0  0  0  0
   -0.7784    0.2219   -1.8726 O   0  0  0  0  0  0  0  0  0  0  0  0
   -2.0514    0.5174   -2.4161 C   0  0  0  0  0  0  0  0  0  0  0  0
   -2.8977   -0.7615   -2.4929 C   0  0  0  0  0  0  0  0  0  0  0  0
   -3.2807   -1.2037   -1.1098 C   0  0  0  0  0  0  0  0  0  0  0  0
   -4.4759   -0.7918   -0.5412 C   0  0  0  0  0  0  0  0  0  0  0  0
   -4.7998   -1.1581    0.7548 C   0  0  0  0  0  0  0  0  0  0  0  0
   -3.9271   -1.9311    1.4971 C   0  0  0  0  0  0  0  0  0  0  0  0
   -4.1850   -2.3309    2.7887 O   0  0  0  0  0  0  0  0  0  0  0  0
   -2.7124   -2.3466    0.9364 C   0  0  0  0  0  0  0  0  0  0  0  0
   -1.8455   -3.1040    1.6572 O   0  0  0  0  0  0  0  0  0  0  0  0
   -2.4041   -1.9795   -0.3625 C   0  0  0  0  0  0  0  0  0  0  0  0
   -1.9185    1.1761   -3.7838 C   0  0  0  0  0  0  0  0  0  0  0  0
   -2.8039    1.2288   -4.5935 O   0  0  0  0  0  0  0  0  0  0  0  0
   -0.7170    1.7133   -3.9762 O   0  0  0  0  0  0  0  0  0  0  0  0
    1.3767   -0.3043   -0.9028 H   0  0  0  0  0  0  0  0  0  0  0  0
    1.2337    2.2428    0.7891 H   0  0  0  0  0  0  0  0  0  0  0  0
    3.1695   -0.9661    0.2281 H   0  0  0  0  0  0  0  0  0  0  0  0
    5.4186   -1.3418    1.1282 H   0  0  0  0  0  0  0  0  0  0  0  0
    7.1697   -0.4223    2.3052 H   0  0  0  0  0  0  0  0  0  0  0  0
    6.4489    2.5052    3.1378 H   0  0  0  0  0  0  0  0  0  0  0  0
    3.2140    3.0076    1.8414 H   0  0  0  0  0  0  0  0  0  0  0  0
   -2.5444    1.2558   -1.7605 H   0  0  0  0  0  0  0  0  0  0  0  0
   -2.3079   -1.5313   -2.9922 H   0  0  0  0  0  0  0  0  0  0  0  0
   -3.7791   -0.5402   -3.0950 H   0  0  0  0  0  0  0  0  0  0  0  0
   -5.1623   -0.1836   -1.1100 H   0  0  0  0  0  0  0  0  0  0  0  0
   -5.7356   -0.8384    1.1932 H   0  0  0  0  0  0  0  0  0  0  0  0
   -5.0413   -1.9855    3.0617 H   0  0  0  0  0  0  0  0  0  0  0  0
   -2.2363   -3.2468    2.5302 H   0  0  0  0  0  0  0  0  0  0  0  0
   -1.4645   -2.3057   -0.7783 H   0  0  0  0  0  0  0  0  0  0  0  0
   -0.6727    2.1486   -4.8428 H   0  0  0  0  0  0  0  0  0  0  0  0
  1  2  2  0  0  0  0
  2  3  1  0  0  0  0
  3  4  2  0  0  0  0
  4  5  1  0  0  0  0
  5  6  4  0  0  0  0
  6  7  4  0  0  0  0
  7  8  4  0  0  0  0
  8  9  1  0  0  0  0
  8 10  4  0  0  0  0
 10 11  1  0  0  0  0
  5 12  4  0  0  0  0
 10 12  4  0  0  0  0
  2 13  1  0  0  0  0
 13 14  1  0  0  0  0
 14 15  1  0  0  0  0
 15 16  1  0  0  0  0
 16 17  4  0  0  0  0
 17 18  4  0  0  0  0
 18 19  4  0  0  0  0
 19 20  1  0  0  0  0
 19 21  4  0  0  0  0
 21 22  1  0  0  0  0
 16 23  4  0  0  0  0
 21 23  4  0  0  0  0
 14 24  1  0  0  0  0
 24 25  2  0  0  0  0
 24 26  1  0  0  0  0
  3 27  1  0  0  0  0
  4 28  1  0  0  0  0
  6 29  1  0  0  0  0
  7 30  1  0  0  0  0
  9 31  1  0  0  0  0
 11 32  1  0  0  0  0
 12 33  1  0  0  0  0
 14 34  1  0  0  0  0
 15 35  1  0  0  0  0
 15 36  1  0  0  0  0
 17 37  1  0  0  0  0
 18 38  1  0  0  0  0
 20 39  1  0  0  0  0
 22 40  1  0  0  0  0
 23 41  1  0  0  0  0
 26 42  1  0  0  0  0
M  END
