 xtb: 6.7.1 (edcfbbe)
          09232617313D

 38 40  0     0  0            999 V2000
    6.1822   -0.4090   -0.0126 C   0  0  0  0  0  0  0  0  0  0  0  0
    5.0176    0.4086    0.2395 N   0  0  0  0  0  0  0  0  0  0  0  0
    5.2219    1.7891    0.6113 C   0  0  0  0  0  0  0  0  0  0  0  0
    3.7787   -0.0946    0.1207 C   0  0  0  0  0  0  0  0  0  0  0  0
    3.5663   -1.4775   -0.1652 C   0  0  0  0  0  0  0  0  0  0  0  0
    2.3163   -1.9910   -0.2811 C   0  0  0  0  0  0  0  0  0  0  0  0
    1.1533   -1.1855   -0.1339 C   0  0  0  0  0  0  0  0  0  0  0  0
   -0.0183   -1.7795   -0.2670 N   0  0  0  0  0  0  0  0  0  0  0  0
   -1.1763   -1.1538   -0.1663 C   0  0  0  0  0  0  0  0  0  0  0  0
   -2.3565   -1.9297   -0.3356 C   0  0  0  0  0  0  0  0  0  0  0  0
   -3.5947   -1.3819   -0.2589 C   0  0  0  0  0  0  0  0  0  0  0  0
   -3.7768    0.0121   -0.0082 C   0  0  0  0  0  0  0  0  0  0  0  0
   -5.0037    0.5527    0.0549 N   0  0  0  0  0  0  0  0  0  0  0  0
   -6.1911   -0.2705    0.0222 C   0  0  0  0  0  0  0  0  0  0  0  0
   -5.1838    1.9822    0.1566 C   0  0  0  0  0  0  0  0  0  0  0  0
   -2.6173    0.7946    0.1648 C   0  0  0  0  0  0  0  0  0  0  0  0
   -1.3608    0.2396    0.0928 C   0  0  0  0  0  0  0  0  0  0  0  0
    0.0152    1.2871    0.3360 S   0  0  0  0  0  0  0  0  0  0  0  0
    1.3678    0.1989    0.1479 C   0  0  0  0  0  0  0  0  0  0  0  0
    2.6362    0.7163    0.2740 C   0  0  0  0  0  0  0  0  0  0  0  0
    6.1284   -0.8683   -1.0012 H   0  0  0  0  0  0  0  0  0  0  0  0
    6.2836   -1.1955    0.7390 H   0  0  0  0  0  0  0  0  0  0  0  0
    7.0746    0.2095    0.0216 H   0  0  0  0  0  0  0  0  0  0  0  0
    4.6945    2.0219    1.5384 H   0  0  0  0  0  0  0  0  0  0  0  0
    6.2808    1.9715    0.7718 H   0  0  0  0  0  0  0  0  0  0  0  0
    4.8729    2.4652   -0.1738 H   0  0  0  0  0  0  0  0  0  0  0  0
    4.4104   -2.1353   -0.2806 H   0  0  0  0  0  0  0  0  0  0  0  0
    2.1566   -3.0365   -0.4899 H   0  0  0  0  0  0  0  0  0  0  0  0
   -2.2192   -2.9802   -0.5359 H   0  0  0  0  0  0  0  0  0  0  0  0
   -4.4528   -2.0134   -0.4123 H   0  0  0  0  0  0  0  0  0  0  0  0
   -6.1039   -1.1061    0.7173 H   0  0  0  0  0  0  0  0  0  0  0  0
   -6.3762   -0.6608   -0.9822 H   0  0  0  0  0  0  0  0  0  0  0  0
   -7.0501    0.3242    0.3214 H   0  0  0  0  0  0  0  0  0  0  0  0
   -4.9298    2.3439    1.1567 H   0  0  0  0  0  0  0  0  0  0  0  0
   -4.5647    2.5022   -0.5756 H   0  0  0  0  0  0  0  0  0  0  0  0
   -6.2220    2.2319   -0.0448 H   0  0  0  0  0  0  0  0  0  0  0  0
   -2.6914    1.8482    0.3779 H   0  0  0  0  0  0  0  0  0  0  0  0
    2.7321    1.7693    0.4803 H   0  0  0  0  0  0  0  0  0  0  0  0
  1  2  1  0  0  0  0
  2  3  1  0  0  0  0
  2  4  4  0  0  0  0
  4  5  4  0  0  0  0
  5  6  2  0  0  0  0
  6  7  1  0  0  0  0
  7  8  4  0  0  0  0
  8  9  4  0  0  0  0
  9 10  1  0  0  0  0
 10 11  2  0  0  0  0
 11 12  4  0  0  0  0
 12 13  4  0  0  0  0
 13 14  1  0  0  0  0
 13 15  1  0  0  0  0
 12 16  4  0  0  0  0
  9 17  1  0  0  0  0
 16 17  4  0  0  0  0
 17 18  1  0  0  0  0
  7 19  1  0  0  0  0
 18 19  1  0  0  0  0
  4 20  4  0  0  0  0
 19 20  4  0  0  0  0
  1 21  1  0  0  0  0
  1 22  1  0  0  0  0
  1 23  1  0  0  0  0
  3 24  1  0  0  0  0
  3 25  1  0  0  0  0
  3 26  1  0  0  0  0
  5 27  1  0  0  0  0
  6 28  1  0  0  0  0
 10 29  1  0  0  0  0
 11 30  1  0  0  0  0
 14 31  1  0  0  0  0
 14 32  1  0  0  0  0
 14 33  1  0  0  0  0
 15 34  1  0  0  0  0
 15 35  1  0  0  0  0
 15 36  1  0  0  0  0
 16 37  1  0  0  0  0
 20 38  1  0  0  0  0
M  CHG  1   1   1
M  END
