 xtb: 6.7.1 (edcfbbe)
          09242620033D

 60110  0     0  0            999 V2000
   -5.8317    3.3992    0.2598 B   0  0  0  0  0  0  0  0  0  0  0  0
   -5.8392    1.7177   -0.1010 B   0  0  0  0  0  0  0  0  0  0  0  0
   -4.3708    4.2317   -0.1078 B   0  0  0  0  0  0  0  0  0  0  0  0
   -4.3808    2.5485   -0.0020 B   0  0  0  0  0  0  0  0  0  0  0  0
   -4.3862    0.8508    0.0526 B   0  0  0  0  0  0  0  0  0  0  0  0
   -5.8525   -1.6738    0.3305 B   0  0  0  0  0  0  0  0  0  0  0  0
   -5.8626   -3.3580    0.0007 B   0  0  0  0  0  0  0  0  0  0  0  0
   -4.3935   -0.8215    0.1340 B   0  0  0  0  0  0  0  0  0  0  0  0
   -4.4019   -2.5181    0.2310 B   0  0  0  0  0  0  0  0  0  0  0  0
   -4.4058   -4.1991    0.3740 B   0  0  0  0  0  0  0  0  0  0  0  0
   -2.9046    3.3986    0.0652 B   0  0  0  0  0  0  0  0  0  0  0  0
   -2.9145    1.6905    0.0974 B   0  0  0  0  0  0  0  0  0  0  0  0
   -1.4401    4.2201    0.2991 B   0  0  0  0  0  0  0  0  0  0  0  0
   -1.4485    2.5372    0.1381 B   0  0  0  0  0  0  0  0  0  0  0  0
   -1.4558    0.8419    0.0505 B   0  0  0  0  0  0  0  0  0  0  0  0
   -2.9296   -1.6741    0.0706 B   0  0  0  0  0  0  0  0  0  0  0  0
   -2.9339   -3.3812    0.1751 B   0  0  0  0  0  0  0  0  0  0  0  0
   -1.4633   -0.8380    0.0760 B   0  0  0  0  0  0  0  0  0  0  0  0
   -1.4711   -2.5334    0.0676 B   0  0  0  0  0  0  0  0  0  0  0  0
   -1.4783   -4.2189   -0.0414 B   0  0  0  0  0  0  0  0  0  0  0  0
    0.0221    3.3850    0.1043 B   0  0  0  0  0  0  0  0  0  0  0  0
    0.0145    1.6779    0.0680 B   0  0  0  0  0  0  0  0  0  0  0  0
    1.4893    4.2089   -0.0810 B   0  0  0  0  0  0  0  0  0  0  0  0
    1.4829    2.5244    0.0485 B   0  0  0  0  0  0  0  0  0  0  0  0
    1.4752    0.8290    0.0706 B   0  0  0  0  0  0  0  0  0  0  0  0
   -0.0001   -1.6869    0.0671 B   0  0  0  0  0  0  0  0  0  0  0  0
   -0.0074   -3.3938    0.1152 B   0  0  0  0  0  0  0  0  0  0  0  0
    1.4676   -0.8509    0.0458 B   0  0  0  0  0  0  0  0  0  0  0  0
    1.4607   -2.5460    0.1293 B   0  0  0  0  0  0  0  0  0  0  0  0
    1.4535   -4.2277    0.3115 B   0  0  0  0  0  0  0  0  0  0  0  0
    2.9488    3.3729    0.1282 B   0  0  0  0  0  0  0  0  0  0  0  0
    2.9440    1.6650    0.0509 B   0  0  0  0  0  0  0  0  0  0  0  0
    4.4197    4.1926    0.3060 B   0  0  0  0  0  0  0  0  0  0  0  0
    4.4148    2.5102    0.1835 B   0  0  0  0  0  0  0  0  0  0  0  0
    4.4057    0.8127    0.1093 B   0  0  0  0  0  0  0  0  0  0  0  0
    2.9290   -1.6994    0.0879 B   0  0  0  0  0  0  0  0  0  0  0  0
    2.9191   -3.4076    0.0660 B   0  0  0  0  0  0  0  0  0  0  0  0
    4.3981   -0.8599    0.0339 B   0  0  0  0  0  0  0  0  0  0  0  0
    4.3924   -2.5579   -0.0094 B   0  0  0  0  0  0  0  0  0  0  0  0
    4.3818   -4.2415   -0.1111 B   0  0  0  0  0  0  0  0  0  0  0  0
    5.8769    3.3476   -0.0586 B   0  0  0  0  0  0  0  0  0  0  0  0
    5.8682    1.6668    0.2916 B   0  0  0  0  0  0  0  0  0  0  0  0
    5.8525   -1.7277   -0.1276 B   0  0  0  0  0  0  0  0  0  0  0  0
    5.8476   -3.4071    0.2407 B   0  0  0  0  0  0  0  0  0  0  0  0
   -6.7660    3.9799    0.6670 H   0  0  0  0  0  0  0  0  0  0  0  0
   -6.7952    1.2307   -0.5724 H   0  0  0  0  0  0  0  0  0  0  0  0
   -4.4227    5.3424   -0.4898 H   0  0  0  0  0  0  0  0  0  0  0  0
   -6.7936   -1.1678    0.8123 H   0  0  0  0  0  0  0  0  0  0  0  0
   -6.8023   -3.9414   -0.3902 H   0  0  0  0  0  0  0  0  0  0  0  0
   -4.4661   -5.3010    0.7792 H   0  0  0  0  0  0  0  0  0  0  0  0
   -1.4425    5.3708    0.5442 H   0  0  0  0  0  0  0  0  0  0  0  0
   -1.4912   -5.3794   -0.2343 H   0  0  0  0  0  0  0  0  0  0  0  0
    1.5008    5.3664   -0.2909 H   0  0  0  0  0  0  0  0  0  0  0  0
    1.4576   -5.3770    0.5628 H   0  0  0  0  0  0  0  0  0  0  0  0
    4.4826    5.3013    0.6920 H   0  0  0  0  0  0  0  0  0  0  0  0
    4.4329   -5.3554   -0.4837 H   0  0  0  0  0  0  0  0  0  0  0  0
    6.8145    3.9273   -0.4599 H   0  0  0  0  0  0  0  0  0  0  0  0
    6.8090    1.1647    0.7777 H   0  0  0  0  0  0  0  0  0  0  0  0
    6.8022   -1.2409   -0.6115 H   0  0  0  0  0  0  0  0  0  0  0  0
    6.7827   -3.9883    0.6454 H   0  0  0  0  0  0  0  0  0  0  0  0
  1  2  1  0  0  0  0
  1  3  1  0  0  0  0
  1  4  1  0  0  0  0
  2  4  1  0  0  0  0
  3  4  1  0  0  0  0
  2  5  1  0  0  0  0
  4  5  1  0  0  0  0
  6  7  1  0  0  0  0
  5  8  1  0  0  0  0
  6  8  1  0  0  0  0
  6  9  1  0  0  0  0
  7  9  1  0  0  0  0
  8  9  1  0  0  0  0
  7 10  1  0  0  0  0
  9 10  1  0  0  0  0
  3 11  1  0  0  0  0
  4 11  1  0  0  0  0
  4 12  1  0  0  0  0
  5 12  1  0  0  0  0
 11 12  1  0  0  0  0
 11 13  1  0  0  0  0
 11 14  1  0  0  0  0
 12 14  1  0  0  0  0
 13 14  1  0  0  0  0
 12 15  1  0  0  0  0
 14 15  1  0  0  0  0
  8 16  1  0  0  0  0
  9 16  1  0  0  0  0
  9 17  1  0  0  0  0
 10 17  1  0  0  0  0
 16 17  1  0  0  0  0
 15 18  1  0  0  0  0
 16 18  1  0  0  0  0
 16 19  1  0  0  0  0
 17 19  1  0  0  0  0
 18 19  1  0  0  0  0
 17 20  1  0  0  0  0
 19 20  1  0  0  0  0
 13 21  1  0  0  0  0
 14 21  1  0  0  0  0
 14 22  1  0  0  0  0
 15 22  1  0  0  0  0
 21 22  1  0  0  0  0
 21 23  1  0  0  0  0
 21 24  1  0  0  0  0
 22 24  1  0  0  0  0
 23 24  1  0  0  0  0
 22 25  1  0  0  0  0
 24 25  1  0  0  0  0
 18 26  1  0  0  0  0
 19 26  1  0  0  0  0
 19 27  1  0  0  0  0
 20 27  1  0  0  0  0
 26 27  1  0  0  0  0
 25 28  1  0  0  0  0
 26 28  1  0  0  0  0
 26 29  1  0  0  0  0
 27 29  1  0  0  0  0
 28 29  1  0  0  0  0
 27 30  1  0  0  0  0
 29 30  1  0  0  0  0
 23 31  1  0  0  0  0
 24 31  1  0  0  0  0
 24 32  1  0  0  0  0
 25 32  1  0  0  0  0
 31 32  1  0  0  0  0
 31 33  1  0  0  0  0
 31 34  1  0  0  0  0
 32 34  1  0  0  0  0
 33 34  1  0  0  0  0
 32 35  1  0  0  0  0
 34 35  1  0  0  0  0
 28 36  1  0  0  0  0
 29 36  1  0  0  0  0
 29 37  1  0  0  0  0
 30 37  1  0  0  0  0
 36 37  1  0  0  0  0
 35 38  1  0  0  0  0
 36 38  1  0  0  0  0
 36 39  1  0  0  0  0
 37 39  1  0  0  0  0
 38 39  1  0  0  0  0
 37 40  1  0  0  0  0
 39 40  1  0  0  0  0
 33 41  1  0  0  0  0
 34 41  1  0  0  0  0
 34 42  1  0  0  0  0
 35 42  1  0  0  0  0
 41 42  1  0  0  0  0
 38 43  1  0  0  0  0
 39 43  1  0  0  0  0
 39 44  1  0  0  0  0
 40 44  1  0  0  0  0
 43 44  1  0  0  0  0
  1 45  1  0  0  0  0
  2 46  1  0  0  0  0
  3 47  1  0  0  0  0
  6 48  1  0  0  0  0
  7 49  1  0  0  0  0
 10 50  1  0  0  0  0
 13 51  1  0  0  0  0
 20 52  1  0  0  0  0
 23 53  1  0  0  0  0
 30 54  1  0  0  0  0
 33 55  1  0  0  0  0
 40 56  1  0  0  0  0
 41 57  1  0  0  0  0
 42 58  1  0  0  0  0
 43 59  1  0  0  0  0
 44 60  1  0  0  0  0
M  END
