 xtb: 6.7.1 (edcfbbe)
          09242610503D

 70 75  0     0  0            999 V2000
    4.4000   -1.3479   -5.9770 N   0  0  0  0  0  0  0  0  0  0  0  0
    5.6067   -1.3382   -5.3743 C   0  0  0  0  0  0  0  0  0  0  0  0
    5.6364   -1.2819   -3.9661 C   0  0  0  0  0  0  0  0  0  0  0  0
    4.4209   -1.1461   -3.3555 N   0  0  0  0  0  0  0  0  0  0  0  0
    4.3810   -1.2704   -2.0861 N   0  0  0  0  0  0  0  0  0  0  0  0
    3.1985   -0.9933   -1.4556 C   0  0  0  0  0  0  0  0  0  0  0  0
    2.9864   -1.5797   -0.2004 C   0  0  0  0  0  0  0  0  0  0  0  0
    1.8536   -1.2883    0.5210 C   0  0  0  0  0  0  0  0  0  0  0  0
    0.8990   -0.3885    0.0340 C   0  0  0  0  0  0  0  0  0  0  0  0
   -0.2983   -0.0730    0.8130 C   0  0  0  0  0  0  0  0  0  0  0  0
   -0.2428    0.0139    2.2085 C   0  0  0  0  0  0  0  0  0  0  0  0
   -1.3672    0.2954    2.9469 C   0  0  0  0  0  0  0  0  0  0  0  0
   -2.5947    0.5246    2.3102 C   0  0  0  0  0  0  0  0  0  0  0  0
   -3.6877    0.7251    3.1086 N   0  0  0  0  0  0  0  0  0  0  0  0
   -4.6724    1.3721    2.6189 N   0  0  0  0  0  0  0  0  0  0  0  0
   -5.8102    1.4552    3.3727 C   0  0  0  0  0  0  0  0  0  0  0  0
   -6.0355    0.7224    4.5616 C   0  0  0  0  0  0  0  0  0  0  0  0
   -7.2163    0.8307    5.2171 C   0  0  0  0  0  0  0  0  0  0  0  0
   -7.5183   -0.1009    6.7046 S   0  0  0  0  0  0  0  0  0  0  0  0
   -8.5861   -1.0392    6.5018 O   0  0  0  0  0  0  0  0  0  0  0  0
   -7.5855    0.7745    7.8286 O   0  0  0  0  0  0  0  0  0  0  0  0
   -6.1692   -0.9852    6.8341 O   0  0  0  0  0  0  0  0  0  0  0  0
   -8.2498    1.6835    4.7605 C   0  0  0  0  0  0  0  0  0  0  0  0
   -9.4620    1.8059    5.4603 C   0  0  0  0  0  0  0  0  0  0  0  0
  -10.4481    2.6432    5.0071 C   0  0  0  0  0  0  0  0  0  0  0  0
  -10.2587    3.3867    3.8371 C   0  0  0  0  0  0  0  0  0  0  0  0
   -9.0866    3.2846    3.1349 C   0  0  0  0  0  0  0  0  0  0  0  0
   -8.0503    2.4360    3.5705 C   0  0  0  0  0  0  0  0  0  0  0  0
   -6.8115    2.3100    2.8680 C   0  0  0  0  0  0  0  0  0  0  0  0
   -6.5362    3.0066    1.7485 N   0  0  0  0  0  0  0  0  0  0  0  0
   -2.6566    0.4341    0.9111 C   0  0  0  0  0  0  0  0  0  0  0  0
   -1.5286    0.1382    0.1829 C   0  0  0  0  0  0  0  0  0  0  0  0
    1.1233    0.2087   -1.2104 C   0  0  0  0  0  0  0  0  0  0  0  0
    2.2470   -0.0855   -1.9457 C   0  0  0  0  0  0  0  0  0  0  0  0
    6.8735   -1.3107   -3.2804 C   0  0  0  0  0  0  0  0  0  0  0  0
    8.0357   -1.3924   -3.9720 C   0  0  0  0  0  0  0  0  0  0  0  0
    9.6004   -1.3936   -3.1212 S   0  0  0  0  0  0  0  0  0  0  0  0
   10.2778   -2.6453   -3.3081 O   0  0  0  0  0  0  0  0  0  0  0  0
   10.3082   -0.1871   -3.4009 O   0  0  0  0  0  0  0  0  0  0  0  0
    9.1461   -1.3595   -1.5687 O   0  0  0  0  0  0  0  0  0  0  0  0
    8.0617   -1.4570   -5.3857 C   0  0  0  0  0  0  0  0  0  0  0  0
    9.2722   -1.5456   -6.0935 C   0  0  0  0  0  0  0  0  0  0  0  0
    9.2771   -1.6105   -7.4627 C   0  0  0  0  0  0  0  0  0  0  0  0
    8.0722   -1.5894   -8.1735 C   0  0  0  0  0  0  0  0  0  0  0  0
    6.8779   -1.5016   -7.5080 C   0  0  0  0  0  0  0  0  0  0  0  0
    6.8332   -1.4317   -6.1018 C   0  0  0  0  0  0  0  0  0  0  0  0
    3.6133   -1.1905   -5.3654 H   0  0  0  0  0  0  0  0  0  0  0  0
    4.3028   -1.2147   -6.9661 H   0  0  0  0  0  0  0  0  0  0  0  0
    3.7172   -2.2817    0.1708 H   0  0  0  0  0  0  0  0  0  0  0  0
    1.6867   -1.7756    1.4702 H   0  0  0  0  0  0  0  0  0  0  0  0
    0.7032   -0.1235    2.7108 H   0  0  0  0  0  0  0  0  0  0  0  0
   -1.3222    0.3729    4.0223 H   0  0  0  0  0  0  0  0  0  0  0  0
   -5.2447    0.0838    4.9202 H   0  0  0  0  0  0  0  0  0  0  0  0
   -6.3833   -1.9005    6.6453 H   0  0  0  0  0  0  0  0  0  0  0  0
   -9.5917    1.2281    6.3606 H   0  0  0  0  0  0  0  0  0  0  0  0
  -11.3750    2.7345    5.5521 H   0  0  0  0  0  0  0  0  0  0  0  0
  -11.0409    4.0447    3.4895 H   0  0  0  0  0  0  0  0  0  0  0  0
   -8.9622    3.8732    2.2379 H   0  0  0  0  0  0  0  0  0  0  0  0
   -7.2317    3.5430    1.2657 H   0  0  0  0  0  0  0  0  0  0  0  0
   -5.6519    2.7986    1.3113 H   0  0  0  0  0  0  0  0  0  0  0  0
   -3.6121    0.5716    0.4258 H   0  0  0  0  0  0  0  0  0  0  0  0
   -1.5984    0.0422   -0.8912 H   0  0  0  0  0  0  0  0  0  0  0  0
    0.4149    0.9325   -1.5871 H   0  0  0  0  0  0  0  0  0  0  0  0
    2.4331    0.3964   -2.8946 H   0  0  0  0  0  0  0  0  0  0  0  0
    6.8573   -1.2465   -2.2046 H   0  0  0  0  0  0  0  0  0  0  0  0
    9.3196   -2.2180   -1.1784 H   0  0  0  0  0  0  0  0  0  0  0  0
   10.1915   -1.5632   -5.5314 H   0  0  0  0  0  0  0  0  0  0  0  0
   10.2109   -1.6798   -7.9991 H   0  0  0  0  0  0  0  0  0  0  0  0
    8.0868   -1.6438   -9.2517 H   0  0  0  0  0  0  0  0  0  0  0  0
    5.9608   -1.4927   -8.0786 H   0  0  0  0  0  0  0  0  0  0  0  0
  1  2  4  0  0  0  0
  2  3  4  0  0  0  0
  3  4  4  0  0  0  0
  4  5  2  0  0  0  0
  5  6  1  0  0  0  0
  6  7  4  0  0  0  0
  7  8  4  0  0  0  0
  8  9  4  0  0  0  0
  9 10  1  0  0  0  0
 10 11  4  0  0  0  0
 11 12  4  0  0  0  0
 12 13  4  0  0  0  0
 13 14  1  0  0  0  0
 14 15  2  0  0  0  0
 15 16  4  0  0  0  0
 16 17  4  0  0  0  0
 17 18  2  0  0  0  0
 18 19  1  0  0  0  0
 19 20  2  0  0  0  0
 19 21  2  0  0  0  0
 19 22  1  0  0  0  0
 18 23  4  0  0  0  0
 23 24  4  0  0  0  0
 24 25  2  0  0  0  0
 25 26  4  0  0  0  0
 26 27  2  0  0  0  0
 23 28  4  0  0  0  0
 27 28  4  0  0  0  0
 16 29  4  0  0  0  0
 28 29  1  0  0  0  0
 29 30  4  0  0  0  0
 13 31  4  0  0  0  0
 10 32  4  0  0  0  0
 31 32  4  0  0  0  0
  9 33  4  0  0  0  0
  6 34  4  0  0  0  0
 33 34  4  0  0  0  0
  3 35  4  0  0  0  0
 35 36  2  0  0  0  0
 36 37  1  0  0  0  0
 37 38  2  0  0  0  0
 37 39  2  0  0  0  0
 37 40  1  0  0  0  0
 36 41  4  0  0  0  0
 41 42  4  0  0  0  0
 42 43  2  0  0  0  0
 43 44  4  0  0  0  0
 44 45  2  0  0  0  0
  2 46  1  0  0  0  0
 41 46  4  0  0  0  0
 45 46  4  0  0  0  0
  1 47  1  0  0  0  0
  1 48  1  0  0  0  0
  7 49  1  0  0  0  0
  8 50  1  0  0  0  0
 11 51  1  0  0  0  0
 12 52  1  0  0  0  0
 17 53  1  0  0  0  0
 22 54  1  0  0  0  0
 24 55  1  0  0  0  0
 25 56  1  0  0  0  0
 26 57  1  0  0  0  0
 27 58  1  0  0  0  0
 30 59  1  0  0  0  0
 30 60  1  0  0  0  0
 31 61  1  0  0  0  0
 32 62  1  0  0  0  0
 33 63  1  0  0  0  0
 34 64  1  0  0  0  0
 35 65  1  0  0  0  0
 40 66  1  0  0  0  0
 42 67  1  0  0  0  0
 43 68  1  0  0  0  0
 44 69  1  0  0  0  0
 45 70  1  0  0  0  0
M  END
