 xtb: 6.7.1 (edcfbbe)
          09242620043D

 60110  0     0  0            999 V2000
   -5.8473    3.3852    0.5093 B   0  0  0  0  0  0  0  0  0  0  0  0
   -5.8472    1.7053    0.1577 B   0  0  0  0  0  0  0  0  0  0  0  0
   -4.3869    4.2206    0.1239 B   0  0  0  0  0  0  0  0  0  0  0  0
   -4.3919    2.5395    0.2840 B   0  0  0  0  0  0  0  0  0  0  0  0
   -4.3934    0.8426    0.3838 B   0  0  0  0  0  0  0  0  0  0  0  0
   -5.8518   -1.6924    0.1664 B   0  0  0  0  0  0  0  0  0  0  0  0
   -5.8569   -3.3694    0.5328 B   0  0  0  0  0  0  0  0  0  0  0  0
   -4.3958   -0.8321    0.3869 B   0  0  0  0  0  0  0  0  0  0  0  0
   -4.3990   -2.5297    0.3019 B   0  0  0  0  0  0  0  0  0  0  0  0
   -4.3987   -4.2123    0.1593 B   0  0  0  0  0  0  0  0  0  0  0  0
   -2.9172    3.3923    0.2471 B   0  0  0  0  0  0  0  0  0  0  0  0
   -2.9242    1.6849    0.4344 B   0  0  0  0  0  0  0  0  0  0  0  0
   -1.4593    4.2221    0.4796 B   0  0  0  0  0  0  0  0  0  0  0  0
   -1.4604    2.5362    0.3953 B   0  0  0  0  0  0  0  0  0  0  0  0
   -1.4624    0.8416    0.3203 B   0  0  0  0  0  0  0  0  0  0  0  0
   -2.9290   -1.6781    0.4403 B   0  0  0  0  0  0  0  0  0  0  0  0
   -2.9266   -3.3871    0.2775 B   0  0  0  0  0  0  0  0  0  0  0  0
   -1.4648   -0.8399    0.3236 B   0  0  0  0  0  0  0  0  0  0  0  0
   -1.4676   -2.5334    0.4272 B   0  0  0  0  0  0  0  0  0  0  0  0
   -1.4715   -4.2180    0.5348 B   0  0  0  0  0  0  0  0  0  0  0  0
    0.0069    3.3858    0.4928 B   0  0  0  0  0  0  0  0  0  0  0  0
    0.0059    1.6812    0.2690 B   0  0  0  0  0  0  0  0  0  0  0  0
    1.4729    4.2165    0.5395 B   0  0  0  0  0  0  0  0  0  0  0  0
    1.4703    2.5319    0.4235 B   0  0  0  0  0  0  0  0  0  0  0  0
    1.4687    0.8375    0.3170 B   0  0  0  0  0  0  0  0  0  0  0  0
    0.0011   -1.6841    0.2757 B   0  0  0  0  0  0  0  0  0  0  0  0
   -0.0027   -3.3867    0.5192 B   0  0  0  0  0  0  0  0  0  0  0  0
    1.4662   -0.8441    0.3209 B   0  0  0  0  0  0  0  0  0  0  0  0
    1.4631   -2.5374    0.4432 B   0  0  0  0  0  0  0  0  0  0  0  0
    1.4610   -4.2211    0.5728 B   0  0  0  0  0  0  0  0  0  0  0  0
    2.9336    3.3848    0.3014 B   0  0  0  0  0  0  0  0  0  0  0  0
    2.9338    1.6767    0.4527 B   0  0  0  0  0  0  0  0  0  0  0  0
    4.4045    4.2089    0.1848 B   0  0  0  0  0  0  0  0  0  0  0  0
    4.4031    2.5272    0.3369 B   0  0  0  0  0  0  0  0  0  0  0  0
    4.3987    0.8302    0.4256 B   0  0  0  0  0  0  0  0  0  0  0  0
    2.9291   -1.6863    0.4614 B   0  0  0  0  0  0  0  0  0  0  0  0
    2.9238   -3.3956    0.3244 B   0  0  0  0  0  0  0  0  0  0  0  0
    4.3964   -0.8442    0.4296 B   0  0  0  0  0  0  0  0  0  0  0  0
    4.3960   -2.5418    0.3548 B   0  0  0  0  0  0  0  0  0  0  0  0
    4.3925   -4.2248    0.2181 B   0  0  0  0  0  0  0  0  0  0  0  0
    5.8605    3.3686    0.5823 B   0  0  0  0  0  0  0  0  0  0  0  0
    5.8600    1.6895    0.2276 B   0  0  0  0  0  0  0  0  0  0  0  0
    5.8551   -1.7090    0.2360 B   0  0  0  0  0  0  0  0  0  0  0  0
    5.8511   -3.3854    0.6049 B   0  0  0  0  0  0  0  0  0  0  0  0
   -6.7818    3.9596    0.9263 H   0  0  0  0  0  0  0  0  0  0  0  0
   -6.8003    1.2182   -0.3150 H   0  0  0  0  0  0  0  0  0  0  0  0
   -4.4505    5.3249   -0.2729 H   0  0  0  0  0  0  0  0  0  0  0  0
   -6.8027   -1.2076   -0.3132 H   0  0  0  0  0  0  0  0  0  0  0  0
   -6.7944   -3.9375    0.9517 H   0  0  0  0  0  0  0  0  0  0  0  0
   -4.4644   -5.3207   -0.2252 H   0  0  0  0  0  0  0  0  0  0  0  0
   -1.4746    5.3851    0.6561 H   0  0  0  0  0  0  0  0  0  0  0  0
   -1.4931   -5.3732    0.7558 H   0  0  0  0  0  0  0  0  0  0  0  0
    1.4931    5.3714    0.7616 H   0  0  0  0  0  0  0  0  0  0  0  0
    1.4786   -5.3729    0.8109 H   0  0  0  0  0  0  0  0  0  0  0  0
    4.4755    5.3137   -0.2094 H   0  0  0  0  0  0  0  0  0  0  0  0
    4.4596   -5.3342   -0.1634 H   0  0  0  0  0  0  0  0  0  0  0  0
    6.7911    3.9421    1.0091 H   0  0  0  0  0  0  0  0  0  0  0  0
    6.8170    1.2000   -0.2344 H   0  0  0  0  0  0  0  0  0  0  0  0
    6.8129   -1.2263   -0.2314 H   0  0  0  0  0  0  0  0  0  0  0  0
    6.7811   -3.9571    1.0352 H   0  0  0  0  0  0  0  0  0  0  0  0
  1  2  1  0  0  0  0
  1  3  1  0  0  0  0
  1  4  1  0  0  0  0
  2  4  1  0  0  0  0
  3  4  1  0  0  0  0
  2  5  1  0  0  0  0
  4  5  1  0  0  0  0
  6  7  1  0  0  0  0
  5  8  1  0  0  0  0
  6  8  1  0  0  0  0
  6  9  1  0  0  0  0
  7  9  1  0  0  0  0
  8  9  1  0  0  0  0
  7 10  1  0  0  0  0
  9 10  1  0  0  0  0
  3 11  1  0  0  0  0
  4 11  1  0  0  0  0
  4 12  1  0  0  0  0
  5 12  1  0  0  0  0
 11 12  1  0  0  0  0
 11 13  1  0  0  0  0
 11 14  1  0  0  0  0
 12 14  1  0  0  0  0
 13 14  1  0  0  0  0
 12 15  1  0  0  0  0
 14 15  1  0  0  0  0
  8 16  1  0  0  0  0
  9 16  1  0  0  0  0
  9 17  1  0  0  0  0
 10 17  1  0  0  0  0
 16 17  1  0  0  0  0
 15 18  1  0  0  0  0
 16 18  1  0  0  0  0
 16 19  1  0  0  0  0
 17 19  1  0  0  0  0
 18 19  1  0  0  0  0
 17 20  1  0  0  0  0
 19 20  1  0  0  0  0
 13 21  1  0  0  0  0
 14 21  1  0  0  0  0
 14 22  1  0  0  0  0
 15 22  1  0  0  0  0
 21 22  1  0  0  0  0
 21 23  1  0  0  0  0
 21 24  1  0  0  0  0
 22 24  1  0  0  0  0
 23 24  1  0  0  0  0
 22 25  1  0  0  0  0
 24 25  1  0  0  0  0
 18 26  1  0  0  0  0
 19 26  1  0  0  0  0
 19 27  1  0  0  0  0
 20 27  1  0  0  0  0
 26 27  1  0  0  0  0
 25 28  1  0  0  0  0
 26 28  1  0  0  0  0
 26 29  1  0  0  0  0
 27 29  1  0  0  0  0
 28 29  1  0  0  0  0
 27 30  1  0  0  0  0
 29 30  1  0  0  0  0
 23 31  1  0  0  0  0
 24 31  1  0  0  0  0
 24 32  1  0  0  0  0
 25 32  1  0  0  0  0
 31 32  1  0  0  0  0
 31 33  1  0  0  0  0
 31 34  1  0  0  0  0
 32 34  1  0  0  0  0
 33 34  1  0  0  0  0
 32 35  1  0  0  0  0
 34 35  1  0  0  0  0
 28 36  1  0  0  0  0
 29 36  1  0  0  0  0
 29 37  1  0  0  0  0
 30 37  1  0  0  0  0
 36 37  1  0  0  0  0
 35 38  1  0  0  0  0
 36 38  1  0  0  0  0
 36 39  1  0  0  0  0
 37 39  1  0  0  0  0
 38 39  1  0  0  0  0
 37 40  1  0  0  0  0
 39 40  1  0  0  0  0
 33 41  1  0  0  0  0
 34 41  1  0  0  0  0
 34 42  1  0  0  0  0
 35 42  1  0  0  0  0
 41 42  1  0  0  0  0
 38 43  1  0  0  0  0
 39 43  1  0  0  0  0
 39 44  1  0  0  0  0
 40 44  1  0  0  0  0
 43 44  1  0  0  0  0
  1 45  1  0  0  0  0
  2 46  1  0  0  0  0
  3 47  1  0  0  0  0
  6 48  1  0  0  0  0
  7 49  1  0  0  0  0
 10 50  1  0  0  0  0
 13 51  1  0  0  0  0
 20 52  1  0  0  0  0
 23 53  1  0  0  0  0
 30 54  1  0  0  0  0
 33 55  1  0  0  0  0
 40 56  1  0  0  0  0
 41 57  1  0  0  0  0
 42 58  1  0  0  0  0
 43 59  1  0  0  0  0
 44 60  1  0  0  0  0
M  END
