 xtb: 6.7.1 (edcfbbe)
          09242620043D

 60110  0     0  0            999 V2000
   -5.9261    3.3173    1.1570 B   0  0  0  0  0  0  0  0  0  0  0  0
   -5.9191    1.6640    0.7100 B   0  0  0  0  0  0  0  0  0  0  0  0
   -4.4970    4.2016    0.7859 B   0  0  0  0  0  0  0  0  0  0  0  0
   -4.4713    2.5129    0.8254 B   0  0  0  0  0  0  0  0  0  0  0  0
   -4.4442    0.8143    0.7826 B   0  0  0  0  0  0  0  0  0  0  0  0
   -5.8751   -1.7269    0.4935 B   0  0  0  0  0  0  0  0  0  0  0  0
   -5.8386   -3.4232    0.7290 B   0  0  0  0  0  0  0  0  0  0  0  0
   -4.4226   -0.8554    0.6748 B   0  0  0  0  0  0  0  0  0  0  0  0
   -4.4058   -2.5458    0.5015 B   0  0  0  0  0  0  0  0  0  0  0  0
   -4.3876   -4.2164    0.2526 B   0  0  0  0  0  0  0  0  0  0  0  0
   -3.0105    3.3906    0.8079 B   0  0  0  0  0  0  0  0  0  0  0  0
   -2.9880    1.6797    0.7873 B   0  0  0  0  0  0  0  0  0  0  0  0
   -1.5534    4.2250    1.0306 B   0  0  0  0  0  0  0  0  0  0  0  0
   -1.5384    2.5539    0.7828 B   0  0  0  0  0  0  0  0  0  0  0  0
   -1.5205    0.8694    0.5704 B   0  0  0  0  0  0  0  0  0  0  0  0
   -2.9446   -1.6764    0.5707 B   0  0  0  0  0  0  0  0  0  0  0  0
   -2.9225   -3.3766    0.3797 B   0  0  0  0  0  0  0  0  0  0  0  0
   -1.4989   -0.8076    0.4622 B   0  0  0  0  0  0  0  0  0  0  0  0
   -1.4723   -2.5059    0.4702 B   0  0  0  0  0  0  0  0  0  0  0  0
   -1.4437   -4.1944    0.5045 B   0  0  0  0  0  0  0  0  0  0  0  0
   -0.0859    3.4324    0.7290 B   0  0  0  0  0  0  0  0  0  0  0  0
   -0.0640    1.7288    0.6170 B   0  0  0  0  0  0  0  0  0  0  0  0
    1.3578    4.2947    0.5360 B   0  0  0  0  0  0  0  0  0  0  0  0
    1.3861    2.6060    0.5613 B   0  0  0  0  0  0  0  0  0  0  0  0
    1.4119    0.9085    0.5528 B   0  0  0  0  0  0  0  0  0  0  0  0
   -0.0205   -1.6279    0.4007 B   0  0  0  0  0  0  0  0  0  0  0  0
    0.0019   -3.3324    0.3030 B   0  0  0  0  0  0  0  0  0  0  0  0
    1.4335   -0.7682    0.4426 B   0  0  0  0  0  0  0  0  0  0  0  0
    1.4518   -2.4537    0.2428 B   0  0  0  0  0  0  0  0  0  0  0  0
    1.4671   -4.1260    0.0045 B   0  0  0  0  0  0  0  0  0  0  0  0
    2.8387    3.4763    0.6528 B   0  0  0  0  0  0  0  0  0  0  0  0
    2.8599    1.7778    0.4419 B   0  0  0  0  0  0  0  0  0  0  0  0
    4.3015    4.3149    0.7868 B   0  0  0  0  0  0  0  0  0  0  0  0
    4.3191    2.6461    0.5223 B   0  0  0  0  0  0  0  0  0  0  0  0
    4.3349    0.9576    0.3258 B   0  0  0  0  0  0  0  0  0  0  0  0
    2.9029   -1.5783    0.2186 B   0  0  0  0  0  0  0  0  0  0  0  0
    2.9264   -3.2900    0.2154 B   0  0  0  0  0  0  0  0  0  0  0  0
    4.3563   -0.7122    0.2134 B   0  0  0  0  0  0  0  0  0  0  0  0
    4.3843   -2.4117    0.1889 B   0  0  0  0  0  0  0  0  0  0  0  0
    4.4106   -4.1007    0.2408 B   0  0  0  0  0  0  0  0  0  0  0  0
    5.7550    3.5238    0.3049 B   0  0  0  0  0  0  0  0  0  0  0  0
    5.7908    1.8275    0.5234 B   0  0  0  0  0  0  0  0  0  0  0  0
    5.8345   -1.5624    0.2955 B   0  0  0  0  0  0  0  0  0  0  0  0
    5.8417   -3.2170   -0.1377 B   0  0  0  0  0  0  0  0  0  0  0  0
   -6.8523    3.8585    1.6330 H   0  0  0  0  0  0  0  0  0  0  0  0
   -6.8877    1.1830    0.2640 H   0  0  0  0  0  0  0  0  0  0  0  0
   -4.5842    5.3396    0.5053 H   0  0  0  0  0  0  0  0  0  0  0  0
   -6.8569   -1.2192    0.1103 H   0  0  0  0  0  0  0  0  0  0  0  0
   -6.7501   -4.0437    1.1307 H   0  0  0  0  0  0  0  0  0  0  0  0
   -4.4457   -5.3118   -0.1695 H   0  0  0  0  0  0  0  0  0  0  0  0
   -1.5629    5.3484    1.3782 H   0  0  0  0  0  0  0  0  0  0  0  0
   -1.4239   -5.3506    0.7189 H   0  0  0  0  0  0  0  0  0  0  0  0
    1.3399    5.4536    0.3372 H   0  0  0  0  0  0  0  0  0  0  0  0
    1.4775   -5.2535   -0.3296 H   0  0  0  0  0  0  0  0  0  0  0  0
    4.3622    5.4071    1.2164 H   0  0  0  0  0  0  0  0  0  0  0  0
    4.5009   -5.2368    0.5277 H   0  0  0  0  0  0  0  0  0  0  0  0
    6.6643    4.1515   -0.0906 H   0  0  0  0  0  0  0  0  0  0  0  0
    6.7680    1.3123    0.9078 H   0  0  0  0  0  0  0  0  0  0  0  0
    6.7998   -1.0751    0.7414 H   0  0  0  0  0  0  0  0  0  0  0  0
    6.7648   -3.7654   -0.6115 H   0  0  0  0  0  0  0  0  0  0  0  0
  1  2  1  0  0  0  0
  1  3  1  0  0  0  0
  1  4  1  0  0  0  0
  2  4  1  0  0  0  0
  3  4  1  0  0  0  0
  2  5  1  0  0  0  0
  4  5  1  0  0  0  0
  6  7  1  0  0  0  0
  5  8  1  0  0  0  0
  6  8  1  0  0  0  0
  6  9  1  0  0  0  0
  7  9  1  0  0  0  0
  8  9  1  0  0  0  0
  7 10  1  0  0  0  0
  9 10  1  0  0  0  0
  3 11  1  0  0  0  0
  4 11  1  0  0  0  0
  4 12  1  0  0  0  0
  5 12  1  0  0  0  0
 11 12  1  0  0  0  0
 11 13  1  0  0  0  0
 11 14  1  0  0  0  0
 12 14  1  0  0  0  0
 13 14  1  0  0  0  0
 12 15  1  0  0  0  0
 14 15  1  0  0  0  0
  8 16  1  0  0  0  0
  9 16  1  0  0  0  0
  9 17  1  0  0  0  0
 10 17  1  0  0  0  0
 16 17  1  0  0  0  0
 15 18  1  0  0  0  0
 16 18  1  0  0  0  0
 16 19  1  0  0  0  0
 17 19  1  0  0  0  0
 18 19  1  0  0  0  0
 17 20  1  0  0  0  0
 19 20  1  0  0  0  0
 13 21  1  0  0  0  0
 14 21  1  0  0  0  0
 14 22  1  0  0  0  0
 15 22  1  0  0  0  0
 21 22  1  0  0  0  0
 21 23  1  0  0  0  0
 21 24  1  0  0  0  0
 22 24  1  0  0  0  0
 23 24  1  0  0  0  0
 22 25  1  0  0  0  0
 24 25  1  0  0  0  0
 18 26  1  0  0  0  0
 19 26  1  0  0  0  0
 19 27  1  0  0  0  0
 20 27  1  0  0  0  0
 26 27  1  0  0  0  0
 25 28  1  0  0  0  0
 26 28  1  0  0  0  0
 26 29  1  0  0  0  0
 27 29  1  0  0  0  0
 28 29  1  0  0  0  0
 27 30  1  0  0  0  0
 29 30  1  0  0  0  0
 23 31  1  0  0  0  0
 24 31  1  0  0  0  0
 24 32  1  0  0  0  0
 25 32  1  0  0  0  0
 31 32  1  0  0  0  0
 31 33  1  0  0  0  0
 31 34  1  0  0  0  0
 32 34  1  0  0  0  0
 33 34  1  0  0  0  0
 32 35  1  0  0  0  0
 34 35  1  0  0  0  0
 28 36  1  0  0  0  0
 29 36  1  0  0  0  0
 29 37  1  0  0  0  0
 30 37  1  0  0  0  0
 36 37  1  0  0  0  0
 35 38  1  0  0  0  0
 36 38  1  0  0  0  0
 36 39  1  0  0  0  0
 37 39  1  0  0  0  0
 38 39  1  0  0  0  0
 37 40  1  0  0  0  0
 39 40  1  0  0  0  0
 33 41  1  0  0  0  0
 34 41  1  0  0  0  0
 34 42  1  0  0  0  0
 35 42  1  0  0  0  0
 41 42  1  0  0  0  0
 38 43  1  0  0  0  0
 39 43  1  0  0  0  0
 39 44  1  0  0  0  0
 40 44  1  0  0  0  0
 43 44  1  0  0  0  0
  1 45  1  0  0  0  0
  2 46  1  0  0  0  0
  3 47  1  0  0  0  0
  6 48  1  0  0  0  0
  7 49  1  0  0  0  0
 10 50  1  0  0  0  0
 13 51  1  0  0  0  0
 20 52  1  0  0  0  0
 23 53  1  0  0  0  0
 30 54  1  0  0  0  0
 33 55  1  0  0  0  0
 40 56  1  0  0  0  0
 41 57  1  0  0  0  0
 42 58  1  0  0  0  0
 43 59  1  0  0  0  0
 44 60  1  0  0  0  0
M  END
