 xtb: 6.7.1 (edcfbbe)
          09242615393D

 38 39  0     0  0            999 V2000
   -5.3281    2.5336   -0.0737 C   0  0  0  0  0  0  0  0  0  0  0  0
   -4.0331    2.2852   -0.0353 C   0  0  0  0  0  0  0  0  0  0  0  0
   -3.3413    1.5516    1.0750 C   0  0  0  0  0  0  0  0  0  0  0  0
   -2.7346    0.2816    0.5367 C   0  0  0  0  0  0  0  0  0  0  0  0
   -3.5374   -0.8271    0.2946 C   0  0  0  0  0  0  0  0  0  0  0  0
   -2.9993   -1.9867   -0.2231 C   0  0  0  0  0  0  0  0  0  0  0  0
   -1.6443   -2.0610   -0.5266 C   0  0  0  0  0  0  0  0  0  0  0  0
   -1.1658   -3.2432   -1.0036 O   0  0  0  0  0  0  0  0  0  0  0  0
   -0.8234   -0.9490   -0.3078 C   0  0  0  0  0  0  0  0  0  0  0  0
    0.6172   -0.9876   -0.6231 C   0  0  0  0  0  0  0  0  0  0  0  0
    1.0728   -1.3923   -1.8752 C   0  0  0  0  0  0  0  0  0  0  0  0
    2.4276   -1.4199   -2.1515 C   0  0  0  0  0  0  0  0  0  0  0  0
    3.3526   -1.0445   -1.1871 C   0  0  0  0  0  0  0  0  0  0  0  0
    4.6931   -1.0679   -1.4365 O   0  0  0  0  0  0  0  0  0  0  0  0
    2.9138   -0.6341    0.0766 C   0  0  0  0  0  0  0  0  0  0  0  0
    3.9053   -0.1900    1.1186 C   0  0  0  0  0  0  0  0  0  0  0  0
    4.1093    1.2922    1.0151 C   0  0  0  0  0  0  0  0  0  0  0  0
    3.8059    2.1541    1.9663 C   0  0  0  0  0  0  0  0  0  0  0  0
    1.5554   -0.6075    0.3334 C   0  0  0  0  0  0  0  0  0  0  0  0
   -1.3866    0.2038    0.2300 C   0  0  0  0  0  0  0  0  0  0  0  0
   -5.7866    3.0527   -0.8983 H   0  0  0  0  0  0  0  0  0  0  0  0
   -5.9875    2.2335    0.7248 H   0  0  0  0  0  0  0  0  0  0  0  0
   -3.3903    2.5906   -0.8509 H   0  0  0  0  0  0  0  0  0  0  0  0
   -2.5540    2.1854    1.4910 H   0  0  0  0  0  0  0  0  0  0  0  0
   -4.0583    1.3190    1.8646 H   0  0  0  0  0  0  0  0  0  0  0  0
   -4.5928   -0.7801    0.5184 H   0  0  0  0  0  0  0  0  0  0  0  0
   -3.6110   -2.8573   -0.4002 H   0  0  0  0  0  0  0  0  0  0  0  0
   -0.2084   -3.1756   -1.1228 H   0  0  0  0  0  0  0  0  0  0  0  0
    0.3683   -1.6515   -2.6533 H   0  0  0  0  0  0  0  0  0  0  0  0
    2.7720   -1.7293   -3.1301 H   0  0  0  0  0  0  0  0  0  0  0  0
    4.8493   -1.3815   -2.3349 H   0  0  0  0  0  0  0  0  0  0  0  0
    3.5413   -0.4477    2.1144 H   0  0  0  0  0  0  0  0  0  0  0  0
    4.8567   -0.6951    0.9383 H   0  0  0  0  0  0  0  0  0  0  0  0
    4.5175    1.6313    0.0723 H   0  0  0  0  0  0  0  0  0  0  0  0
    3.3971    1.8357    2.9117 H   0  0  0  0  0  0  0  0  0  0  0  0
    3.9604    3.2134    1.8486 H   0  0  0  0  0  0  0  0  0  0  0  0
    1.2137   -0.2941    1.3090 H   0  0  0  0  0  0  0  0  0  0  0  0
   -0.7464    1.0593    0.3950 H   0  0  0  0  0  0  0  0  0  0  0  0
  1  2  2  0  0  0  0
  2  3  1  0  0  0  0
  3  4  1  0  0  0  0
  4  5  4  0  0  0  0
  5  6  4  0  0  0  0
  6  7  4  0  0  0  0
  7  8  1  0  0  0  0
  7  9  4  0  0  0  0
  9 10  1  0  0  0  0
 10 11  4  0  0  0  0
 11 12  4  0  0  0  0
 12 13  4  0  0  0  0
 13 14  1  0  0  0  0
 13 15  4  0  0  0  0
 15 16  1  0  0  0  0
 16 17  1  0  0  0  0
 17 18  2  0  0  0  0
 10 19  4  0  0  0  0
 15 19  4  0  0  0  0
  4 20  4  0  0  0  0
  9 20  4  0  0  0  0
  1 21  1  0  0  0  0
  1 22  1  0  0  0  0
  2 23  1  0  0  0  0
  3 24  1  0  0  0  0
  3 25  1  0  0  0  0
  5 26  1  0  0  0  0
  6 27  1  0  0  0  0
  8 28  1  0  0  0  0
 11 29  1  0  0  0  0
 12 30  1  0  0  0  0
 14 31  1  0  0  0  0
 16 32  1  0  0  0  0
 16 33  1  0  0  0  0
 17 34  1  0  0  0  0
 18 35  1  0  0  0  0
 18 36  1  0  0  0  0
 19 37  1  0  0  0  0
 20 38  1  0  0  0  0
M  END
