 xtb: 6.7.1 (edcfbbe)
          09242620043D

 60110  0     0  0            999 V2000
   -5.9759    3.1329    1.3624 B   0  0  0  0  0  0  0  0  0  0  0  0
   -5.9143    1.5299    0.7346 B   0  0  0  0  0  0  0  0  0  0  0  0
   -4.5672    4.0861    1.0816 B   0  0  0  0  0  0  0  0  0  0  0  0
   -4.4940    2.4076    0.9372 B   0  0  0  0  0  0  0  0  0  0  0  0
   -4.4186    0.7217    0.7455 B   0  0  0  0  0  0  0  0  0  0  0  0
   -5.7563   -1.8869    0.6505 B   0  0  0  0  0  0  0  0  0  0  0  0
   -5.6980   -3.4928    0.0412 B   0  0  0  0  0  0  0  0  0  0  0  0
   -4.3449   -0.9418    0.5672 B   0  0  0  0  0  0  0  0  0  0  0  0
   -4.2724   -2.6277    0.3705 B   0  0  0  0  0  0  0  0  0  0  0  0
   -4.1941   -4.3068    0.2288 B   0  0  0  0  0  0  0  0  0  0  0  0
   -3.0594    3.3158    1.0718 B   0  0  0  0  0  0  0  0  0  0  0  0
   -2.9857    1.6096    0.9408 B   0  0  0  0  0  0  0  0  0  0  0  0
   -1.6305    4.1688    1.3917 B   0  0  0  0  0  0  0  0  0  0  0  0
   -1.5613    2.5199    1.0373 B   0  0  0  0  0  0  0  0  0  0  0  0
   -1.4905    0.8536    0.7334 B   0  0  0  0  0  0  0  0  0  0  0  0
   -2.8446   -1.7009    0.3555 B   0  0  0  0  0  0  0  0  0  0  0  0
   -2.7676   -3.3942    0.1370 B   0  0  0  0  0  0  0  0  0  0  0  0
   -1.4182   -0.8078    0.4922 B   0  0  0  0  0  0  0  0  0  0  0  0
   -1.3495   -2.4680    0.1456 B   0  0  0  0  0  0  0  0  0  0  0  0
   -1.2821   -4.1072   -0.2578 B   0  0  0  0  0  0  0  0  0  0  0  0
   -0.1311    3.4209    1.1905 B   0  0  0  0  0  0  0  0  0  0  0  0
   -0.0648    1.7686    0.7306 B   0  0  0  0  0  0  0  0  0  0  0  0
    1.2969    4.3102    1.2974 B   0  0  0  0  0  0  0  0  0  0  0  0
    1.3650    2.6602    0.9455 B   0  0  0  0  0  0  0  0  0  0  0  0
    1.4337    1.0037    0.5809 B   0  0  0  0  0  0  0  0  0  0  0  0
    0.0806   -1.5634    0.2807 B   0  0  0  0  0  0  0  0  0  0  0  0
    0.1535   -3.2516    0.0361 B   0  0  0  0  0  0  0  0  0  0  0  0
    1.5052   -0.6554    0.3206 B   0  0  0  0  0  0  0  0  0  0  0  0
    1.5808   -2.3446    0.1641 B   0  0  0  0  0  0  0  0  0  0  0  0
    1.6564   -4.0296    0.0544 B   0  0  0  0  0  0  0  0  0  0  0  0
    2.7839    3.5920    0.9142 B   0  0  0  0  0  0  0  0  0  0  0  0
    2.8652    1.8810    0.8154 B   0  0  0  0  0  0  0  0  0  0  0  0
    4.2118    4.4954    0.8825 B   0  0  0  0  0  0  0  0  0  0  0  0
    4.2903    2.8108    0.7852 B   0  0  0  0  0  0  0  0  0  0  0  0
    4.3639    1.1206    0.6185 B   0  0  0  0  0  0  0  0  0  0  0  0
    3.0073   -1.4355    0.2715 B   0  0  0  0  0  0  0  0  0  0  0  0
    3.0740   -3.1083   -0.0831 B   0  0  0  0  0  0  0  0  0  0  0  0
    4.4352   -0.5332    0.3698 B   0  0  0  0  0  0  0  0  0  0  0  0
    4.5071   -2.1968    0.0274 B   0  0  0  0  0  0  0  0  0  0  0  0
    4.5710   -3.8339   -0.3879 B   0  0  0  0  0  0  0  0  0  0  0  0
    5.7172    3.6778    1.0993 B   0  0  0  0  0  0  0  0  0  0  0  0
    5.7773    2.0726    0.4991 B   0  0  0  0  0  0  0  0  0  0  0  0
    5.9236   -1.2866    0.0087 B   0  0  0  0  0  0  0  0  0  0  0  0
    6.0049   -2.9934    0.0744 B   0  0  0  0  0  0  0  0  0  0  0  0
   -6.9244    3.5839    1.8855 H   0  0  0  0  0  0  0  0  0  0  0  0
   -6.8598    1.0798    0.2074 H   0  0  0  0  0  0  0  0  0  0  0  0
   -4.6873    5.2320    0.8463 H   0  0  0  0  0  0  0  0  0  0  0  0
   -6.7055   -1.5181    1.2302 H   0  0  0  0  0  0  0  0  0  0  0  0
   -6.6239   -4.0464   -0.4192 H   0  0  0  0  0  0  0  0  0  0  0  0
   -4.1870   -5.4629    0.4415 H   0  0  0  0  0  0  0  0  0  0  0  0
   -1.6872    5.2900    1.7439 H   0  0  0  0  0  0  0  0  0  0  0  0
   -1.2452   -5.1971   -0.6982 H   0  0  0  0  0  0  0  0  0  0  0  0
    1.2720    5.4220    1.6813 H   0  0  0  0  0  0  0  0  0  0  0  0
    1.7244   -5.2010    0.1335 H   0  0  0  0  0  0  0  0  0  0  0  0
    4.2161    5.6494    0.6597 H   0  0  0  0  0  0  0  0  0  0  0  0
    4.6685   -4.8801   -0.9142 H   0  0  0  0  0  0  0  0  0  0  0  0
    6.6379    4.2252    1.5789 H   0  0  0  0  0  0  0  0  0  0  0  0
    6.7370    1.6998   -0.0571 H   0  0  0  0  0  0  0  0  0  0  0  0
    6.8400   -0.6747   -0.3829 H   0  0  0  0  0  0  0  0  0  0  0  0
    6.9703   -3.5941    0.3646 H   0  0  0  0  0  0  0  0  0  0  0  0
  1  2  1  0  0  0  0
  1  3  1  0  0  0  0
  1  4  1  0  0  0  0
  2  4  1  0  0  0  0
  3  4  1  0  0  0  0
  2  5  1  0  0  0  0
  4  5  1  0  0  0  0
  6  7  1  0  0  0  0
  5  8  1  0  0  0  0
  6  8  1  0  0  0  0
  6  9  1  0  0  0  0
  7  9  1  0  0  0  0
  8  9  1  0  0  0  0
  7 10  1  0  0  0  0
  9 10  1  0  0  0  0
  3 11  1  0  0  0  0
  4 11  1  0  0  0  0
  4 12  1  0  0  0  0
  5 12  1  0  0  0  0
 11 12  1  0  0  0  0
 11 13  1  0  0  0  0
 11 14  1  0  0  0  0
 12 14  1  0  0  0  0
 13 14  1  0  0  0  0
 12 15  1  0  0  0  0
 14 15  1  0  0  0  0
  8 16  1  0  0  0  0
  9 16  1  0  0  0  0
  9 17  1  0  0  0  0
 10 17  1  0  0  0  0
 16 17  1  0  0  0  0
 15 18  1  0  0  0  0
 16 18  1  0  0  0  0
 16 19  1  0  0  0  0
 17 19  1  0  0  0  0
 18 19  1  0  0  0  0
 17 20  1  0  0  0  0
 19 20  1  0  0  0  0
 13 21  1  0  0  0  0
 14 21  1  0  0  0  0
 14 22  1  0  0  0  0
 15 22  1  0  0  0  0
 21 22  1  0  0  0  0
 21 23  1  0  0  0  0
 21 24  1  0  0  0  0
 22 24  1  0  0  0  0
 23 24  1  0  0  0  0
 22 25  1  0  0  0  0
 24 25  1  0  0  0  0
 18 26  1  0  0  0  0
 19 26  1  0  0  0  0
 19 27  1  0  0  0  0
 20 27  1  0  0  0  0
 26 27  1  0  0  0  0
 25 28  1  0  0  0  0
 26 28  1  0  0  0  0
 26 29  1  0  0  0  0
 27 29  1  0  0  0  0
 28 29  1  0  0  0  0
 27 30  1  0  0  0  0
 29 30  1  0  0  0  0
 23 31  1  0  0  0  0
 24 31  1  0  0  0  0
 24 32  1  0  0  0  0
 25 32  1  0  0  0  0
 31 32  1  0  0  0  0
 31 33  1  0  0  0  0
 31 34  1  0  0  0  0
 32 34  1  0  0  0  0
 33 34  1  0  0  0  0
 32 35  1  0  0  0  0
 34 35  1  0  0  0  0
 28 36  1  0  0  0  0
 29 36  1  0  0  0  0
 29 37  1  0  0  0  0
 30 37  1  0  0  0  0
 36 37  1  0  0  0  0
 35 38  1  0  0  0  0
 36 38  1  0  0  0  0
 36 39  1  0  0  0  0
 37 39  1  0  0  0  0
 38 39  1  0  0  0  0
 37 40  1  0  0  0  0
 39 40  1  0  0  0  0
 33 41  1  0  0  0  0
 34 41  1  0  0  0  0
 34 42  1  0  0  0  0
 35 42  1  0  0  0  0
 41 42  1  0  0  0  0
 38 43  1  0  0  0  0
 39 43  1  0  0  0  0
 39 44  1  0  0  0  0
 40 44  1  0  0  0  0
 43 44  1  0  0  0  0
  1 45  1  0  0  0  0
  2 46  1  0  0  0  0
  3 47  1  0  0  0  0
  6 48  1  0  0  0  0
  7 49  1  0  0  0  0
 10 50  1  0  0  0  0
 13 51  1  0  0  0  0
 20 52  1  0  0  0  0
 23 53  1  0  0  0  0
 30 54  1  0  0  0  0
 33 55  1  0  0  0  0
 40 56  1  0  0  0  0
 41 57  1  0  0  0  0
 42 58  1  0  0  0  0
 43 59  1  0  0  0  0
 44 60  1  0  0  0  0
M  END
